*
*
*
*                       LINUX           Wed May 20 09:06:32 2026
*
*
*
*  PROGRAM  advgen
*
*  Name           : advgen - Quantus - (64-bit)
*  Version        : 21.2.2-p045
*  Build Date     : Fri Sep 23 10:27:37 PDT 2022
*
*  HSPICE LIBRARY
*
*
*

*
.SUBCKT CLA_PBL VDD GND Ck Xk Xk1 Xk2 Xk3 Yk Yk1 Yk2 Yk3 CK4 SUMk SUMk1 SUMk2
+ SUMk3
*
*
*  caps2d version: 10
*
*
*       TRANSISTOR CARDS
*
*
MI0/I1/NM0	net6#11	I0/net1#4	GND#321	GND#1	nmos1v
+ L=1e-07	W=5e-07
+ AD=1.4e-13	AS=1.4e-13	PD=1.56e-06	PS=1.56e-06
+ simW=5e-07 fw=5e-07
MI0/I0/NM3	I0/net1#10	net14#4	GND#327	GND#1	nmos1v
+ L=1e-07	W=5e-07
+ AD=8e-14	AS=1.4e-13	PD=8.2e-07	PS=1.56e-06
+ simW=5e-07 fw=5e-07
MI0/I0/NM0	I0/net1#10	net1#4	GND#332	GND#1	nmos1v	L=1e-07
+ W=5e-07
+ AD=8e-14	AS=8e-14	PD=8.2e-07	PS=8.2e-07
+ simW=5e-07 fw=5e-07
MI0/I0/NM1	I0/net1#16	net2#4	GND#332	GND#1	nmos1v	L=1e-07
+ W=5e-07
+ AD=8e-14	AS=8e-14	PD=8.2e-07	PS=8.2e-07
+ simW=5e-07 fw=5e-07
MI0/I0/NM2	I0/net1#16	net3#4	GND#335	GND#1	nmos1v	L=1e-07
+ W=5e-07
+ AD=8e-14	AS=1.4e-13	PD=8.2e-07	PS=1.56e-06
+ simW=5e-07 fw=5e-07
MI1/I1/NM0	net3#9	I1/net1#4	GND#245	GND#1	nmos1v	L=1e-07
+ W=5e-07
+ AD=1.4e-13	AS=1.4e-13	PD=1.56e-06	PS=1.56e-06
+ simW=5e-07 fw=5e-07
MI1/I0/NM2	I1/net1#16	net18#15	I1/I0/net1	GND#1	nmos1v
+ L=1e-07	W=2e-06
+ AD=5.6e-13	AS=1.2e-13	PD=4.56e-06	PS=2.12e-06
+ simW=2e-06 fw=2e-06
MI1/I0/NM3	I1/I0/net1	net17#23	I1/I0/net2	GND#1	nmos1v
+ L=1e-07	W=2e-06
+ AD=1.2e-13	AS=1.2e-13	PD=2.12e-06	PS=2.12e-06
+ simW=2e-06 fw=2e-06
MI1/I0/NM0	I1/I0/net2	net16#24	I1/I0/net3	GND#1	nmos1v
+ L=1e-07	W=2e-06
+ AD=1.2e-13	AS=1.2e-13	PD=2.12e-06	PS=2.12e-06
+ simW=2e-06 fw=2e-06
MI1/I0/NM1	I1/I0/net3	net15#13	GND#252	GND#1	nmos1v
+ L=1e-07	W=2e-06
+ AD=1.2e-13	AS=5.6e-13	PD=2.12e-06	PS=4.56e-06
+ simW=2e-06 fw=2e-06
MI2/I1/NM0	net4#11	I2/net1#4	GND#259	GND#1	nmos1v
+ L=1e-07	W=5e-07
+ AD=1.4e-13	AS=1.4e-13	PD=1.56e-06	PS=1.56e-06
+ simW=5e-07 fw=5e-07
MI2/I0/NM2	I2/net1#16	net18#11	I2/I0/net1	GND#1	nmos1v
+ L=1e-07	W=2e-06
+ AD=5.6e-13	AS=1.2e-13	PD=4.56e-06	PS=2.12e-06
+ simW=2e-06 fw=2e-06
MI2/I0/NM3	I2/I0/net1	net17#19	I2/I0/net2	GND#1	nmos1v
+ L=1e-07	W=2e-06
+ AD=1.2e-13	AS=1.2e-13	PD=2.12e-06	PS=2.12e-06
+ simW=2e-06 fw=2e-06
MI2/I0/NM0	I2/I0/net2	net16#20	I2/I0/net3	GND#1	nmos1v
+ L=1e-07	W=2e-06
+ AD=1.2e-13	AS=1.2e-13	PD=2.12e-06	PS=2.12e-06
+ simW=2e-06 fw=2e-06
MI2/I0/NM1	I2/I0/net3	net20#9	GND#266	GND#1	nmos1v
+ L=1e-07	W=2e-06
+ AD=1.2e-13	AS=5.6e-13	PD=2.12e-06	PS=4.56e-06
+ simW=2e-06 fw=2e-06
MI13/I1/NM0	net63#9	I13/net1#4	GND#486	GND#1	nmos1v
+ L=1e-07	W=5e-07
+ AD=1.4e-13	AS=1.4e-13	PD=1.56e-06	PS=1.56e-06
+ simW=5e-07 fw=5e-07
MI13/I0/NM1	I13/net1#10	net30#8	GND#491	GND#1	nmos1v
+ L=1e-07	W=5e-07
+ AD=8e-14	AS=1.4e-13	PD=8.2e-07	PS=1.56e-06
+ simW=5e-07 fw=5e-07
MI13/I0/NM0	I13/net1#10	net53#4	GND#494	GND#1	nmos1v
+ L=1e-07	W=5e-07
+ AD=8e-14	AS=8e-14	PD=8.2e-07	PS=8.2e-07
+ simW=5e-07 fw=5e-07
MI13/I0/NM2	I13/net1#16	net54#4	GND#494	GND#1	nmos1v
+ L=1e-07	W=5e-07
+ AD=1.4e-13	AS=8e-14	PD=1.56e-06	PS=8.2e-07
+ simW=5e-07 fw=5e-07
MI3/I1/NM0	net2#9	I3/net1#4	GND#231	GND#1	nmos1v	L=1e-07
+ W=5e-07
+ AD=1.4e-13	AS=1.4e-13	PD=1.56e-06	PS=1.56e-06
+ simW=5e-07 fw=5e-07
MI3/I0/NM2	I3/net1#16	net18#7	I3/I0/net1	GND#1	nmos1v
+ L=1e-07	W=1.5e-06
+ AD=4.2e-13	AS=9e-14	PD=3.56e-06	PS=1.62e-06
+ simW=1.5e-06 fw=1.5e-06
MI3/I0/NM0	I3/I0/net3	net17#16	I3/I0/net1	GND#1	nmos1v
+ L=1e-07	W=1.5e-06
+ AD=9e-14	AS=9e-14	PD=1.62e-06	PS=1.62e-06
+ simW=1.5e-06 fw=1.5e-06
MI3/I0/NM1	GND#238	net25#5	I3/I0/net3	GND#1	nmos1v
+ L=1e-07	W=1.5e-06
+ AD=4.2e-13	AS=9e-14	PD=3.56e-06	PS=1.62e-06
+ simW=1.5e-06 fw=1.5e-06
MI11/I1/NM0	net54#9	I11/net1#4	GND#203	GND#1	nmos1v
+ L=1e-07	W=5e-07
+ AD=1.4e-13	AS=1.4e-13	PD=1.56e-06	PS=1.56e-06
+ simW=5e-07 fw=5e-07
MI11/I0/NM2	I11/net1#16	net17#7	I11/I0/net1	GND#1	nmos1v
+ L=1e-07	W=1.5e-06
+ AD=4.2e-13	AS=9e-14	PD=3.56e-06	PS=1.62e-06
+ simW=1.5e-06 fw=1.5e-06
MI11/I0/NM0	I11/I0/net3	net16#12	I11/I0/net1	GND#1	nmos1v
+ L=1e-07	W=1.5e-06
+ AD=9e-14	AS=9e-14	PD=1.62e-06	PS=1.62e-06
+ simW=1.5e-06 fw=1.5e-06
MI11/I0/NM1	GND#211	net15#9	I11/I0/net3	GND#1	nmos1v
+ L=1e-07	W=1.5e-06
+ AD=4.2e-13	AS=9e-14	PD=3.56e-06	PS=1.62e-06
+ simW=1.5e-06 fw=1.5e-06
MI12/I1/NM0	net19#9	I12/net1#4	GND#472	GND#1	nmos1v
+ L=1e-07	W=5e-07
+ AD=1.4e-13	AS=1.4e-13	PD=1.56e-06	PS=1.56e-06
+ simW=5e-07 fw=5e-07
MI12/I0/NM2	I12/net1#16	net17#11	I12/I0/net1	GND#1	nmos1v
+ L=1e-07	W=1.5e-06
+ AD=4.2e-13	AS=9e-14	PD=3.56e-06	PS=1.62e-06
+ simW=1.5e-06 fw=1.5e-06
MI12/I0/NM0	I12/I0/net3	net16#16	I12/I0/net1	GND#1	nmos1v
+ L=1e-07	W=1.5e-06
+ AD=9e-14	AS=9e-14	PD=1.62e-06	PS=1.62e-06
+ simW=1.5e-06 fw=1.5e-06
MI12/I0/NM1	GND#477	net20#5	I12/I0/net3	GND#1	nmos1v
+ L=1e-07	W=1.5e-06
+ AD=4.2e-13	AS=9e-14	PD=3.56e-06	PS=1.62e-06
+ simW=1.5e-06 fw=1.5e-06
MI5/I1/NM0	CK4#4	I5/net1#4	GND#372	GND#1	nmos1v	L=1e-07
+ W=5e-07
+ AD=1.4e-13	AS=1.4e-13	PD=1.56e-06	PS=1.56e-06
+ simW=5e-07 fw=5e-07
MI5/I0/NM0	I5/net1#9	net6#4	GND#380	GND#1	nmos1v	L=1e-07
+ W=5e-07
+ AD=8e-14	AS=1.4e-13	PD=8.2e-07	PS=1.56e-06
+ simW=5e-07 fw=5e-07
MI5/I0/NM1	I5/net1#9	net5#3	GND#394	GND#1	nmos1v	L=1e-07
+ W=5e-07
+ AD=8e-14	AS=1.4e-13	PD=8.2e-07	PS=1.56e-06
+ simW=5e-07 fw=5e-07
MI15/I1/NM0	net32#15	I15/net1#4	GND#459	GND#1	nmos1v
+ L=1e-07	W=5e-07
+ AD=1.4e-13	AS=1.4e-13	PD=1.56e-06	PS=1.56e-06
+ simW=5e-07 fw=5e-07
MI15/I0/NM0	I15/net1#9	net66#4	GND#464	GND#1	nmos1v
+ L=1e-07	W=5e-07
+ AD=8e-14	AS=1.4e-13	PD=8.2e-07	PS=1.56e-06
+ simW=5e-07 fw=5e-07
MI15/I0/NM1	I15/net1#9	net63#3	GND#480	GND#1	nmos1v
+ L=1e-07	W=5e-07
+ AD=8e-14	AS=1.4e-13	PD=8.2e-07	PS=1.56e-06
+ simW=5e-07 fw=5e-07
MI23/I1/NM0	net74#9	I23/net1#4	GND#304	GND#1	nmos1v
+ L=1e-07	W=5e-07
+ AD=1.4e-13	AS=1.4e-13	PD=1.56e-06	PS=1.56e-06
+ simW=5e-07 fw=5e-07
MI23/I0/NM0	I23/net1#9	net91#4	GND#311	GND#1	nmos1v
+ L=1e-07	W=5e-07
+ AD=8e-14	AS=1.4e-13	PD=8.2e-07	PS=1.56e-06
+ simW=5e-07 fw=5e-07
MI23/I0/NM1	I23/net1#9	net25#11	GND#314	GND#1	nmos1v
+ L=1e-07	W=5e-07
+ AD=8e-14	AS=1.4e-13	PD=8.2e-07	PS=1.56e-06
+ simW=5e-07 fw=5e-07
MI19/I1/NM0	net73#15	I19/net1#4	GND#522	GND#1	nmos1v
+ L=1e-07	W=5e-07
+ AD=1.4e-13	AS=1.4e-13	PD=1.56e-06	PS=1.56e-06
+ simW=5e-07 fw=5e-07
MI19/I0/NM0	I19/net1#9	net75#4	GND#527	GND#1	nmos1v
+ L=1e-07	W=5e-07
+ AD=8e-14	AS=1.4e-13	PD=8.2e-07	PS=1.56e-06
+ simW=5e-07 fw=5e-07
MI19/I0/NM1	I19/net1#9	net74#3	GND#541	GND#1	nmos1v
+ L=1e-07	W=5e-07
+ AD=8e-14	AS=1.4e-13	PD=8.2e-07	PS=1.56e-06
+ simW=5e-07 fw=5e-07
MI24/I1/NM0	net90#15	I24/net1#4	GND#287	GND#1	nmos1v
+ L=1e-07	W=5e-07
+ AD=1.4e-13	AS=1.4e-13	PD=1.56e-06	PS=1.56e-06
+ simW=5e-07 fw=5e-07
MI24/I0/NM0	I24/net1#9	net89#4	GND#294	GND#1	nmos1v
+ L=1e-07	W=5e-07
+ AD=8e-14	AS=1.4e-13	PD=8.2e-07	PS=1.56e-06
+ simW=5e-07 fw=5e-07
MI24/I0/NM1	I24/net1#9	net15#19	GND#297	GND#1	nmos1v
+ L=1e-07	W=5e-07
+ AD=8e-14	AS=1.4e-13	PD=8.2e-07	PS=1.56e-06
+ simW=5e-07 fw=5e-07
MI8/I1/NM0	I8/net1#8	Xk3#4	GND#44	GND#1	nmos1v	L=1e-07
+ W=5e-07
+ AD=1.4e-13	AS=1.4e-13	PD=1.56e-06	PS=1.56e-06
+ simW=5e-07 fw=5e-07
MI8/I2/NM0	I8/net2#8	Yk3#4	GND#154	GND#1	nmos1v	L=1e-07
+ W=5e-07
+ AD=1.4e-13	AS=1.4e-13	PD=1.56e-06	PS=1.56e-06
+ simW=5e-07 fw=5e-07
MI8/I0/NM3	I8/I0/net3	Xk3#9	net18#37	GND#1	nmos1v	L=1e-07
+ W=1e-06
+ AD=6e-14	AS=2.8e-13	PD=1.12e-06	PS=2.56e-06
+ simW=1e-06 fw=1e-06
MI8/I0/NM1	GND#141	Yk3#9	I8/I0/net3	GND#1	nmos1v	L=1e-07
+ W=1e-06
+ AD=1.6e-13	AS=6e-14	PD=1.32e-06	PS=1.12e-06
+ simW=1e-06 fw=1e-06
MI8/I0/NM0	GND#141	I8/net2#3	I8/I0/net1	GND#1	nmos1v
+ L=1e-07	W=1e-06
+ AD=1.6e-13	AS=6e-14	PD=1.32e-06	PS=1.12e-06
+ simW=1e-06 fw=1e-06
MI8/I0/NM2	I8/I0/net1	I8/net1#3	net18#33	GND#1	nmos1v
+ L=1e-07	W=1e-06
+ AD=6e-14	AS=2.8e-13	PD=1.12e-06	PS=2.56e-06
+ simW=1e-06 fw=1e-06
MI17/I1/NM0	I17/net1#8	Xk2#4	GND#22	GND#1	nmos1v	L=1e-07
+ W=5e-07
+ AD=1.4e-13	AS=1.4e-13	PD=1.56e-06	PS=1.56e-06
+ simW=5e-07 fw=5e-07
MI17/I2/NM0	I17/net2#8	Yk2#4	GND#99	GND#1	nmos1v	L=1e-07
+ W=5e-07
+ AD=1.4e-13	AS=1.4e-13	PD=1.56e-06	PS=1.56e-06
+ simW=5e-07 fw=5e-07
MI17/I0/NM3	I17/I0/net3	Xk2#9	net17#45	GND#1	nmos1v	L=1e-07
+ W=1e-06
+ AD=6e-14	AS=2.8e-13	PD=1.12e-06	PS=2.56e-06
+ simW=1e-06 fw=1e-06
MI17/I0/NM1	GND#78	Yk2#9	I17/I0/net3	GND#1	nmos1v	L=1e-07
+ W=1e-06
+ AD=1.6e-13	AS=6e-14	PD=1.32e-06	PS=1.12e-06
+ simW=1e-06 fw=1e-06
MI17/I0/NM0	GND#78	I17/net2#3	I17/I0/net1	GND#1	nmos1v	L=1e-07
+ W=1e-06
+ AD=1.6e-13	AS=6e-14	PD=1.32e-06	PS=1.12e-06
+ simW=1e-06 fw=1e-06
MI17/I0/NM2	I17/I0/net1	I17/net1#3	net17#41	GND#1	nmos1v
+ L=1e-07	W=1e-06
+ AD=6e-14	AS=2.8e-13	PD=1.12e-06	PS=2.56e-06
+ simW=1e-06 fw=1e-06
MI9/I1/NM0	I9/net1#8	net18#20	GND#425	GND#1	nmos1v
+ L=1e-07	W=5e-07
+ AD=1.4e-13	AS=1.4e-13	PD=1.56e-06	PS=1.56e-06
+ simW=5e-07 fw=5e-07
MI9/I2/NM0	I9/net2#8	net32#4	GND#453	GND#1	nmos1v
+ L=1e-07	W=5e-07
+ AD=1.4e-13	AS=1.4e-13	PD=1.56e-06	PS=1.56e-06
+ simW=5e-07 fw=5e-07
MI9/I0/NM3	I9/I0/net3	net18#21	SUMk3#13	GND#1	nmos1v
+ L=1e-07	W=1e-06
+ AD=6e-14	AS=2.8e-13	PD=1.12e-06	PS=2.56e-06
+ simW=1e-06 fw=1e-06
MI9/I0/NM1	GND#437	net32#5	I9/I0/net3	GND#1	nmos1v
+ L=1e-07	W=1e-06
+ AD=1.6e-13	AS=6e-14	PD=1.32e-06	PS=1.12e-06
+ simW=1e-06 fw=1e-06
MI9/I0/NM0	GND#437	I9/net2#3	I9/I0/net1	GND#1	nmos1v
+ L=1e-07	W=1e-06
+ AD=1.6e-13	AS=6e-14	PD=1.32e-06	PS=1.12e-06
+ simW=1e-06 fw=1e-06
MI9/I0/NM2	I9/I0/net1	I9/net1#3	SUMk3#9	GND#1	nmos1v
+ L=1e-07	W=1e-06
+ AD=6e-14	AS=2.8e-13	PD=1.12e-06	PS=2.56e-06
+ simW=1e-06 fw=1e-06
MI18/I1/NM0	I18/net1#8	net17#28	GND#433	GND#1	nmos1v
+ L=1e-07	W=5e-07
+ AD=1.4e-13	AS=1.4e-13	PD=1.56e-06	PS=1.56e-06
+ simW=5e-07 fw=5e-07
MI18/I2/NM0	I18/net2#8	net73#4	GND#511	GND#1	nmos1v
+ L=1e-07	W=5e-07
+ AD=1.4e-13	AS=1.4e-13	PD=1.56e-06	PS=1.56e-06
+ simW=5e-07 fw=5e-07
MI18/I0/NM3	I18/I0/net3	net17#29	SUMk2#13	GND#1	nmos1v
+ L=1e-07	W=1e-06
+ AD=6e-14	AS=2.8e-13	PD=1.12e-06	PS=2.56e-06
+ simW=1e-06 fw=1e-06
MI18/I0/NM1	GND#497	net73#5	I18/I0/net3	GND#1	nmos1v
+ L=1e-07	W=1e-06
+ AD=1.6e-13	AS=6e-14	PD=1.32e-06	PS=1.12e-06
+ simW=1e-06 fw=1e-06
MI18/I0/NM0	GND#497	I18/net2#3	I18/I0/net1	GND#1	nmos1v
+ L=1e-07	W=1e-06
+ AD=1.6e-13	AS=6e-14	PD=1.32e-06	PS=1.12e-06
+ simW=1e-06 fw=1e-06
MI18/I0/NM2	I18/I0/net1	I18/net1#3	SUMk2#9	GND#1	nmos1v
+ L=1e-07	W=1e-06
+ AD=6e-14	AS=2.8e-13	PD=1.12e-06	PS=2.56e-06
+ simW=1e-06 fw=1e-06
MI27/I1/NM0	I27/net1#8	Xk1#4	GND#6	GND#1	nmos1v	L=1e-07
+ W=5e-07
+ AD=1.4e-13	AS=1.4e-13	PD=1.56e-06	PS=1.56e-06
+ simW=5e-07 fw=5e-07
MI27/I2/NM0	I27/net2#8	Yk1#4	GND#122	GND#1	nmos1v	L=1e-07
+ W=5e-07
+ AD=1.4e-13	AS=1.4e-13	PD=1.56e-06	PS=1.56e-06
+ simW=5e-07 fw=5e-07
MI27/I0/NM3	I27/I0/net3	Xk1#9	net16#45	GND#1	nmos1v	L=1e-07
+ W=1e-06
+ AD=6e-14	AS=2.8e-13	PD=1.12e-06	PS=2.56e-06
+ simW=1e-06 fw=1e-06
MI27/I0/NM1	GND#62	Yk1#9	I27/I0/net3	GND#1	nmos1v	L=1e-07
+ W=1e-06
+ AD=1.6e-13	AS=6e-14	PD=1.32e-06	PS=1.12e-06
+ simW=1e-06 fw=1e-06
MI27/I0/NM0	GND#62	I27/net2#3	I27/I0/net1	GND#1	nmos1v	L=1e-07
+ W=1e-06
+ AD=1.6e-13	AS=6e-14	PD=1.32e-06	PS=1.12e-06
+ simW=1e-06 fw=1e-06
MI27/I0/NM2	I27/I0/net1	I27/net1#3	net16#41	GND#1	nmos1v
+ L=1e-07	W=1e-06
+ AD=6e-14	AS=2.8e-13	PD=1.12e-06	PS=2.56e-06
+ simW=1e-06 fw=1e-06
MI31/I1/NM0	I31/net1#8	net90#4	GND#364	GND#1	nmos1v
+ L=1e-07	W=5e-07
+ AD=1.4e-13	AS=1.4e-13	PD=1.56e-06	PS=1.56e-06
+ simW=5e-07 fw=5e-07
MI31/I2/NM0	I31/net2#8	net16#28	GND#418	GND#1	nmos1v
+ L=1e-07	W=5e-07
+ AD=1.4e-13	AS=1.4e-13	PD=1.56e-06	PS=1.56e-06
+ simW=5e-07 fw=5e-07
MI31/I0/NM3	I31/I0/net3	net90#5	SUMk1#13	GND#1	nmos1v
+ L=1e-07	W=1e-06
+ AD=6e-14	AS=2.8e-13	PD=1.12e-06	PS=2.56e-06
+ simW=1e-06 fw=1e-06
MI31/I0/NM1	GND#405	net16#29	I31/I0/net3	GND#1	nmos1v
+ L=1e-07	W=1e-06
+ AD=1.6e-13	AS=6e-14	PD=1.32e-06	PS=1.12e-06
+ simW=1e-06 fw=1e-06
MI31/I0/NM0	GND#405	I31/net2#3	I31/I0/net1	GND#1	nmos1v
+ L=1e-07	W=1e-06
+ AD=1.6e-13	AS=6e-14	PD=1.32e-06	PS=1.12e-06
+ simW=1e-06 fw=1e-06
MI31/I0/NM2	I31/I0/net1	I31/net1#3	SUMk1#9	GND#1	nmos1v
+ L=1e-07	W=1e-06
+ AD=6e-14	AS=2.8e-13	PD=1.12e-06	PS=2.56e-06
+ simW=1e-06 fw=1e-06
MI28/I1/NM0	I28/net1#8	Xk#4	GND#14	GND#1	nmos1v	L=1e-07
+ W=5e-07
+ AD=1.4e-13	AS=1.4e-13	PD=1.56e-06	PS=1.56e-06
+ simW=5e-07 fw=5e-07
MI28/I2/NM0	I28/net2#8	Yk#4	GND#90	GND#1	nmos1v	L=1e-07
+ W=5e-07
+ AD=1.4e-13	AS=1.4e-13	PD=1.56e-06	PS=1.56e-06
+ simW=5e-07 fw=5e-07
MI28/I0/NM3	I28/I0/net3	Xk#9	net20#33	GND#1	nmos1v	L=1e-07
+ W=1e-06
+ AD=6e-14	AS=2.8e-13	PD=1.12e-06	PS=2.56e-06
+ simW=1e-06 fw=1e-06
MI28/I0/NM1	GND#70	Yk#9	I28/I0/net3	GND#1	nmos1v	L=1e-07
+ W=1e-06
+ AD=1.6e-13	AS=6e-14	PD=1.32e-06	PS=1.12e-06
+ simW=1e-06 fw=1e-06
MI28/I0/NM0	GND#70	I28/net2#3	I28/I0/net1	GND#1	nmos1v	L=1e-07
+ W=1e-06
+ AD=1.6e-13	AS=6e-14	PD=1.32e-06	PS=1.12e-06
+ simW=1e-06 fw=1e-06
MI28/I0/NM2	I28/I0/net1	I28/net1#3	net20#29	GND#1	nmos1v
+ L=1e-07	W=1e-06
+ AD=6e-14	AS=2.8e-13	PD=1.12e-06	PS=2.56e-06
+ simW=1e-06 fw=1e-06
MI32/I1/NM0	I32/net1#8	net20#16	GND#356	GND#1	nmos1v
+ L=1e-07	W=5e-07
+ AD=1.4e-13	AS=1.4e-13	PD=1.56e-06	PS=1.56e-06
+ simW=5e-07 fw=5e-07
MI32/I2/NM0	I32/net2#8	Ck#20	GND#549	GND#1	nmos1v	L=1e-07
+ W=5e-07
+ AD=1.4e-13	AS=1.4e-13	PD=1.56e-06	PS=1.56e-06
+ simW=5e-07 fw=5e-07
MI32/I0/NM3	I32/I0/net3	net20#17	SUMk#13	GND#1	nmos1v
+ L=1e-07	W=1e-06
+ AD=6e-14	AS=2.8e-13	PD=1.12e-06	PS=2.56e-06
+ simW=1e-06 fw=1e-06
MI32/I0/NM1	GND#397	Ck#21	I32/I0/net3	GND#1	nmos1v	L=1e-07
+ W=1e-06
+ AD=1.6e-13	AS=6e-14	PD=1.32e-06	PS=1.12e-06
+ simW=1e-06 fw=1e-06
MI32/I0/NM0	GND#397	I32/net2#3	I32/I0/net1	GND#1	nmos1v
+ L=1e-07	W=1e-06
+ AD=1.6e-13	AS=6e-14	PD=1.32e-06	PS=1.12e-06
+ simW=1e-06 fw=1e-06
MI32/I0/NM2	I32/I0/net1	I32/net1#3	SUMk#9	GND#1	nmos1v	L=1e-07
+ W=1e-06
+ AD=6e-14	AS=2.8e-13	PD=1.12e-06	PS=2.56e-06
+ simW=1e-06 fw=1e-06
MI4/I0/NM0	I4/net1#9	net18#4	I4/I0/net1	GND#1	nmos1v
+ L=1e-07	W=1e-06
+ AD=2.8e-13	AS=6e-14	PD=2.56e-06	PS=1.12e-06
+ simW=1e-06 fw=1e-06
MI4/I0/NM1	I4/I0/net1	net30#3	GND#280	GND#1	nmos1v
+ L=1e-07	W=1e-06
+ AD=6e-14	AS=2.8e-13	PD=1.12e-06	PS=2.56e-06
+ simW=1e-06 fw=1e-06
MI4/I1/NM0	net1#11	I4/net1#4	GND#273	GND#1	nmos1v
+ L=1e-07	W=5e-07
+ AD=1.4e-13	AS=1.4e-13	PD=1.56e-06	PS=1.56e-06
+ simW=5e-07 fw=5e-07
MI7/I0/NM0	I7/net1#9	Xk3#8	I7/I0/net1	GND#1	nmos1v	L=1e-07
+ W=1e-06
+ AD=2.8e-13	AS=6e-14	PD=2.56e-06	PS=1.12e-06
+ simW=1e-06 fw=1e-06
MI7/I0/NM1	I7/I0/net1	Yk3#7	GND#138	GND#1	nmos1v	L=1e-07
+ W=1e-06
+ AD=6e-14	AS=2.8e-13	PD=1.12e-06	PS=2.56e-06
+ simW=1e-06 fw=1e-06
MI7/I1/NM0	net14#9	I7/net1#4	GND#131	GND#1	nmos1v
+ L=1e-07	W=5e-07
+ AD=1.4e-13	AS=1.4e-13	PD=1.56e-06	PS=1.56e-06
+ simW=5e-07 fw=5e-07
MI6/I0/NM0	I6/net1#9	net4#4	I6/I0/net1	GND#1	nmos1v	L=1e-07
+ W=1e-06
+ AD=2.8e-13	AS=6e-14	PD=2.56e-06	PS=1.12e-06
+ simW=1e-06 fw=1e-06
MI6/I0/NM1	I6/I0/net1	Ck#7	GND#391	GND#1	nmos1v	L=1e-07
+ W=1e-06
+ AD=6e-14	AS=2.8e-13	PD=1.12e-06	PS=2.56e-06
+ simW=1e-06 fw=1e-06
MI6/I1/NM0	net5#9	I6/net1#4	GND#386	GND#1	nmos1v	L=1e-07
+ W=5e-07
+ AD=1.4e-13	AS=1.4e-13	PD=1.56e-06	PS=1.56e-06
+ simW=5e-07 fw=5e-07
MI10/I0/NM0	I10/net1#9	net17#4	I10/I0/net1	GND#1	nmos1v
+ L=1e-07	W=1e-06
+ AD=2.8e-13	AS=6e-14	PD=2.56e-06	PS=1.12e-06
+ simW=1e-06 fw=1e-06
MI10/I0/NM1	I10/I0/net1	net25#3	GND#224	GND#1	nmos1v
+ L=1e-07	W=1e-06
+ AD=6e-14	AS=2.8e-13	PD=1.12e-06	PS=2.56e-06
+ simW=1e-06 fw=1e-06
MI10/I1/NM0	net53#11	I10/net1#4	GND#219	GND#1	nmos1v
+ L=1e-07	W=5e-07
+ AD=1.4e-13	AS=1.4e-13	PD=1.56e-06	PS=1.56e-06
+ simW=5e-07 fw=5e-07
MI14/I0/NM0	I14/net1#9	net19#4	I14/I0/net1	GND#1	nmos1v
+ L=1e-07	W=1e-06
+ AD=2.8e-13	AS=6e-14	PD=2.56e-06	PS=1.12e-06
+ simW=1e-06 fw=1e-06
MI14/I0/NM1	I14/I0/net1	Ck#11	GND#349	GND#1	nmos1v	L=1e-07
+ W=1e-06
+ AD=6e-14	AS=2.8e-13	PD=1.12e-06	PS=2.56e-06
+ simW=1e-06 fw=1e-06
MI14/I1/NM0	net66#11	I14/net1#4	GND#342	GND#1	nmos1v
+ L=1e-07	W=5e-07
+ AD=1.4e-13	AS=1.4e-13	PD=1.56e-06	PS=1.56e-06
+ simW=5e-07 fw=5e-07
MI16/I0/NM0	I16/net1#9	Xk2#8	I16/I0/net1	GND#1	nmos1v	L=1e-07
+ W=1e-06
+ AD=2.8e-13	AS=6e-14	PD=2.56e-06	PS=1.12e-06
+ simW=1e-06 fw=1e-06
MI16/I0/NM1	I16/I0/net1	Yk2#7	GND#59	GND#1	nmos1v	L=1e-07
+ W=1e-06
+ AD=6e-14	AS=2.8e-13	PD=1.12e-06	PS=2.56e-06
+ simW=1e-06 fw=1e-06
MI16/I1/NM0	net30#19	I16/net1#4	GND#52	GND#1	nmos1v	L=1e-07
+ W=5e-07
+ AD=1.4e-13	AS=1.4e-13	PD=1.56e-06	PS=1.56e-06
+ simW=5e-07 fw=5e-07
MI21/I0/NM0	I21/net1#9	net16#4	I21/I0/net1	GND#1	nmos1v
+ L=1e-07	W=1e-06
+ AD=2.8e-13	AS=6e-14	PD=2.56e-06	PS=1.12e-06
+ simW=1e-06 fw=1e-06
MI21/I0/NM1	I21/I0/net1	net15#3	GND#168	GND#1	nmos1v
+ L=1e-07	W=1e-06
+ AD=6e-14	AS=2.8e-13	PD=1.12e-06	PS=2.56e-06
+ simW=1e-06 fw=1e-06
MI21/I1/NM0	net91#11	I21/net1#4	GND#161	GND#1	nmos1v
+ L=1e-07	W=5e-07
+ AD=1.4e-13	AS=1.4e-13	PD=1.56e-06	PS=1.56e-06
+ simW=5e-07 fw=5e-07
MI20/I0/NM0	I20/net1#9	net92#4	I20/I0/net1	GND#1	nmos1v
+ L=1e-07	W=1e-06
+ AD=2.8e-13	AS=6e-14	PD=2.56e-06	PS=1.12e-06
+ simW=1e-06 fw=1e-06
MI20/I0/NM1	I20/I0/net1	Ck#15	GND#538	GND#1	nmos1v	L=1e-07
+ W=1e-06
+ AD=6e-14	AS=2.8e-13	PD=1.12e-06	PS=2.56e-06
+ simW=1e-06 fw=1e-06
MI20/I1/NM0	net75#9	I20/net1#4	GND#533	GND#1	nmos1v
+ L=1e-07	W=5e-07
+ AD=1.4e-13	AS=1.4e-13	PD=1.56e-06	PS=1.56e-06
+ simW=5e-07 fw=5e-07
MI22/I0/NM0	I22/net1#9	net16#8	I22/I0/net1	GND#1	nmos1v
+ L=1e-07	W=1e-06
+ AD=2.8e-13	AS=6e-14	PD=2.56e-06	PS=1.12e-06
+ simW=1e-06 fw=1e-06
MI22/I0/NM1	I22/I0/net1	net20#3	GND#182	GND#1	nmos1v
+ L=1e-07	W=1e-06
+ AD=6e-14	AS=2.8e-13	PD=1.12e-06	PS=2.56e-06
+ simW=1e-06 fw=1e-06
MI22/I1/NM0	net92#11	I22/net1#4	GND#175	GND#1	nmos1v
+ L=1e-07	W=5e-07
+ AD=1.4e-13	AS=1.4e-13	PD=1.56e-06	PS=1.56e-06
+ simW=5e-07 fw=5e-07
MI26/I0/NM0	I26/net1#9	Xk1#8	I26/I0/net1	GND#1	nmos1v	L=1e-07
+ W=1e-06
+ AD=2.8e-13	AS=6e-14	PD=2.56e-06	PS=1.12e-06
+ simW=1e-06 fw=1e-06
MI26/I0/NM1	I26/I0/net1	Yk1#7	GND#115	GND#1	nmos1v	L=1e-07
+ W=1e-06
+ AD=6e-14	AS=2.8e-13	PD=1.12e-06	PS=2.56e-06
+ simW=1e-06 fw=1e-06
MI26/I1/NM0	net25#27	I26/net1#4	GND#108	GND#1	nmos1v
+ L=1e-07	W=5e-07
+ AD=1.4e-13	AS=1.4e-13	PD=1.56e-06	PS=1.56e-06
+ simW=5e-07 fw=5e-07
MI30/I0/NM0	I30/net1#9	Ck#4	I30/I0/net1	GND#1	nmos1v	L=1e-07
+ W=1e-06
+ AD=2.8e-13	AS=6e-14	PD=2.56e-06	PS=1.12e-06
+ simW=1e-06 fw=1e-06
MI30/I0/NM1	I30/I0/net1	net15#7	GND#196	GND#1	nmos1v
+ L=1e-07	W=1e-06
+ AD=6e-14	AS=2.8e-13	PD=1.12e-06	PS=2.56e-06
+ simW=1e-06 fw=1e-06
MI30/I1/NM0	net89#11	I30/net1#4	GND#189	GND#1	nmos1v
+ L=1e-07	W=5e-07
+ AD=1.4e-13	AS=1.4e-13	PD=1.56e-06	PS=1.56e-06
+ simW=5e-07 fw=5e-07
MI29/I0/NM0	I29/net1#9	Xk#8	I29/I0/net1	GND#1	nmos1v	L=1e-07
+ W=1e-06
+ AD=2.8e-13	AS=6e-14	PD=2.56e-06	PS=1.12e-06
+ simW=1e-06 fw=1e-06
MI29/I0/NM1	I29/I0/net1	Yk#7	GND#37	GND#1	nmos1v	L=1e-07
+ W=1e-06
+ AD=6e-14	AS=2.8e-13	PD=1.12e-06	PS=2.56e-06
+ simW=1e-06 fw=1e-06
MI29/I1/NM0	net15#34	I29/net1#4	GND#30	GND#1	nmos1v	L=1e-07
+ W=5e-07
+ AD=1.4e-13	AS=1.4e-13	PD=1.56e-06	PS=1.56e-06
+ simW=5e-07 fw=5e-07
MI0/I1/PM0	net6#14	I0/net1	VDD#662	VDD	pmos1v
+ L=1e-07	W=1e-06
+ AD=2.8e-13	AS=2.8e-13	PD=2.56e-06	PS=2.56e-06
+ simW=1e-06 fw=1e-06
MI0/I0/PM1	I0/net1#13	net3#3	I0/I0/net3	VDD	pmos1v	L=1e-07
+ W=4e-06
+ AD=1.12e-12	AS=2.4e-13	PD=8.56e-06	PS=4.12e-06
+ simW=4e-06 fw=4e-06
MI0/I0/PM2	I0/I0/net2	net2#3	I0/I0/net3	VDD	pmos1v	L=1e-07
+ W=4e-06
+ AD=2.4e-13	AS=2.4e-13	PD=4.12e-06	PS=4.12e-06
+ simW=4e-06 fw=4e-06
MI0/I0/PM3	I0/I0/net2	net1	I0/I0/net1	VDD	pmos1v	L=1e-07
+ W=4e-06
+ AD=2.4e-13	AS=2.4e-13	PD=4.12e-06	PS=4.12e-06
+ simW=4e-06 fw=4e-06
MI0/I0/PM0	VDD#642	net14	I0/I0/net1	VDD	pmos1v	L=1e-07
+ W=4e-06
+ AD=1.12e-12	AS=2.4e-13	PD=8.56e-06	PS=4.12e-06
+ simW=4e-06 fw=4e-06
MI1/I1/PM0	net3#5	I1/net1	VDD#259	VDD	pmos1v	L=1e-07
+ W=1e-06
+ AD=2.8e-13	AS=2.8e-13	PD=2.56e-06	PS=2.56e-06
+ simW=1e-06 fw=1e-06
MI1/I0/PM1	I1/net1#10	net15#16	VDD#266	VDD	pmos1v
+ L=1e-07	W=1e-06
+ AD=1.6e-13	AS=2.8e-13	PD=1.32e-06	PS=2.56e-06
+ simW=1e-06 fw=1e-06
MI1/I0/PM0	I1/net1#10	net16#21	VDD#279	VDD	pmos1v
+ L=1e-07	W=1e-06
+ AD=1.6e-13	AS=1.6e-13	PD=1.32e-06	PS=1.32e-06
+ simW=1e-06 fw=1e-06
MI1/I0/PM3	I1/net1#13	net17#24	VDD#279	VDD	pmos1v
+ L=1e-07	W=1e-06
+ AD=1.6e-13	AS=1.6e-13	PD=1.32e-06	PS=1.32e-06
+ simW=1e-06 fw=1e-06
MI1/I0/PM2	I1/net1#13	net18#13	VDD#276	VDD	pmos1v
+ L=1e-07	W=1e-06
+ AD=1.6e-13	AS=2.8e-13	PD=1.32e-06	PS=2.56e-06
+ simW=1e-06 fw=1e-06
MI2/I1/PM0	net4#14	I2/net1	VDD#349	VDD	pmos1v
+ L=1e-07	W=1e-06
+ AD=2.8e-13	AS=2.8e-13	PD=2.56e-06	PS=2.56e-06
+ simW=1e-06 fw=1e-06
MI2/I0/PM1	I2/net1#10	net20#12	VDD#355	VDD	pmos1v
+ L=1e-07	W=1e-06
+ AD=1.6e-13	AS=2.8e-13	PD=1.32e-06	PS=2.56e-06
+ simW=1e-06 fw=1e-06
MI2/I0/PM0	I2/net1#10	net16#17	VDD#361	VDD	pmos1v
+ L=1e-07	W=1e-06
+ AD=1.6e-13	AS=1.6e-13	PD=1.32e-06	PS=1.32e-06
+ simW=1e-06 fw=1e-06
MI2/I0/PM3	I2/net1#13	net17#20	VDD#361	VDD	pmos1v
+ L=1e-07	W=1e-06
+ AD=1.6e-13	AS=1.6e-13	PD=1.32e-06	PS=1.32e-06
+ simW=1e-06 fw=1e-06
MI2/I0/PM2	I2/net1#13	net18#9	VDD#358	VDD	pmos1v
+ L=1e-07	W=1e-06
+ AD=1.6e-13	AS=2.8e-13	PD=1.32e-06	PS=2.56e-06
+ simW=1e-06 fw=1e-06
MI13/I1/PM0	net63#5	I13/net1	VDD#384	VDD	pmos1v
+ L=1e-07	W=1e-06
+ AD=2.8e-13	AS=2.8e-13	PD=2.56e-06	PS=2.56e-06
+ simW=1e-06 fw=1e-06
MI13/I0/PM0	I13/net1#13	net54#3	I13/I0/net5	VDD	pmos1v
+ L=1e-07	W=3e-06
+ AD=8.4e-13	AS=1.8e-13	PD=6.56e-06	PS=3.12e-06
+ simW=3e-06 fw=3e-06
MI13/I0/PM2	I13/I0/net5	net53	I13/I0/net4	VDD	pmos1v	L=1e-07
+ W=3e-06
+ AD=1.8e-13	AS=1.8e-13	PD=3.12e-06	PS=3.12e-06
+ simW=3e-06 fw=3e-06
MI13/I0/PM1	I13/I0/net4	net30#5	VDD#403	VDD	pmos1v
+ L=1e-07	W=3e-06
+ AD=1.8e-13	AS=8.4e-13	PD=3.12e-06	PS=6.56e-06
+ simW=3e-06 fw=3e-06
MI3/I1/PM0	net2#5	I3/net1	VDD#273	VDD	pmos1v	L=1e-07
+ W=1e-06
+ AD=2.8e-13	AS=2.8e-13	PD=2.56e-06	PS=2.56e-06
+ simW=1e-06 fw=1e-06
MI3/I0/PM1	I3/net1#10	net25#8	VDD#283	VDD	pmos1v
+ L=1e-07	W=1e-06
+ AD=1.6e-13	AS=2.8e-13	PD=1.32e-06	PS=2.56e-06
+ simW=1e-06 fw=1e-06
MI3/I0/PM0	I3/net1#10	net17#13	VDD#289	VDD	pmos1v
+ L=1e-07	W=1e-06
+ AD=1.6e-13	AS=1.6e-13	PD=1.32e-06	PS=1.32e-06
+ simW=1e-06 fw=1e-06
MI3/I0/PM2	I3/net1#13	net18#8	VDD#289	VDD	pmos1v
+ L=1e-07	W=1e-06
+ AD=2.8e-13	AS=1.6e-13	PD=2.56e-06	PS=1.32e-06
+ simW=1e-06 fw=1e-06
MI11/I1/PM0	net54#5	I11/net1	VDD#244	VDD	pmos1v
+ L=1e-07	W=1e-06
+ AD=2.8e-13	AS=2.8e-13	PD=2.56e-06	PS=2.56e-06
+ simW=1e-06 fw=1e-06
MI11/I0/PM1	I11/net1#10	net15#12	VDD#248	VDD	pmos1v
+ L=1e-07	W=1e-06
+ AD=1.6e-13	AS=2.8e-13	PD=1.32e-06	PS=2.56e-06
+ simW=1e-06 fw=1e-06
MI11/I0/PM0	I11/net1#10	net16#9	VDD#251	VDD	pmos1v
+ L=1e-07	W=1e-06
+ AD=1.6e-13	AS=1.6e-13	PD=1.32e-06	PS=1.32e-06
+ simW=1e-06 fw=1e-06
MI11/I0/PM2	I11/net1#13	net17#8	VDD#251	VDD	pmos1v
+ L=1e-07	W=1e-06
+ AD=2.8e-13	AS=1.6e-13	PD=2.56e-06	PS=1.32e-06
+ simW=1e-06 fw=1e-06
MI12/I1/PM0	net19#5	I12/net1	VDD#226	VDD	pmos1v
+ L=1e-07	W=1e-06
+ AD=2.8e-13	AS=2.8e-13	PD=2.56e-06	PS=2.56e-06
+ simW=1e-06 fw=1e-06
MI12/I0/PM1	I12/net1#10	net20#8	VDD#230	VDD	pmos1v
+ L=1e-07	W=1e-06
+ AD=1.6e-13	AS=2.8e-13	PD=1.32e-06	PS=2.56e-06
+ simW=1e-06 fw=1e-06
MI12/I0/PM0	I12/net1#10	net16#13	VDD#233	VDD	pmos1v
+ L=1e-07	W=1e-06
+ AD=1.6e-13	AS=1.6e-13	PD=1.32e-06	PS=1.32e-06
+ simW=1e-06 fw=1e-06
MI12/I0/PM2	I12/net1#13	net17#12	VDD#233	VDD	pmos1v
+ L=1e-07	W=1e-06
+ AD=2.8e-13	AS=1.6e-13	PD=2.56e-06	PS=1.32e-06
+ simW=1e-06 fw=1e-06
MI5/I1/PM0	CK4#7	I5/net1	VDD#635	VDD	pmos1v	L=1e-07
+ W=1e-06
+ AD=2.8e-13	AS=2.8e-13	PD=2.56e-06	PS=2.56e-06
+ simW=1e-06 fw=1e-06
MI5/I0/PM0	I5/net1#12	net5#4	I5/I0/net1	VDD	pmos1v	L=1e-07
+ W=2e-06
+ AD=5.6e-13	AS=1.2e-13	PD=4.56e-06	PS=2.12e-06
+ simW=2e-06 fw=2e-06
MI5/I0/PM1	I5/I0/net1	net6	VDD#648	VDD	pmos1v	L=1e-07
+ W=2e-06
+ AD=1.2e-13	AS=5.6e-13	PD=2.12e-06	PS=4.56e-06
+ simW=2e-06 fw=2e-06
MI15/I1/PM0	net32#19	I15/net1	VDD#523	VDD	pmos1v
+ L=1e-07	W=1e-06
+ AD=2.8e-13	AS=2.8e-13	PD=2.56e-06	PS=2.56e-06
+ simW=1e-06 fw=1e-06
MI15/I0/PM0	I15/net1#12	net63#4	I15/I0/net1	VDD	pmos1v
+ L=1e-07	W=2e-06
+ AD=5.6e-13	AS=1.2e-13	PD=4.56e-06	PS=2.12e-06
+ simW=2e-06 fw=2e-06
MI15/I0/PM1	I15/I0/net1	net66	VDD#530	VDD	pmos1v	L=1e-07
+ W=2e-06
+ AD=1.2e-13	AS=5.6e-13	PD=2.12e-06	PS=4.56e-06
+ simW=2e-06 fw=2e-06
MI23/I1/PM0	net74#5	I23/net1	VDD#556	VDD	pmos1v
+ L=1e-07	W=1e-06
+ AD=2.8e-13	AS=2.8e-13	PD=2.56e-06	PS=2.56e-06
+ simW=1e-06 fw=1e-06
MI23/I0/PM0	I23/net1#12	net25#12	I23/I0/net1	VDD	pmos1v
+ L=1e-07	W=2e-06
+ AD=5.6e-13	AS=1.2e-13	PD=4.56e-06	PS=2.12e-06
+ simW=2e-06 fw=2e-06
MI23/I0/PM1	I23/I0/net1	net91	VDD#562	VDD	pmos1v	L=1e-07
+ W=2e-06
+ AD=1.2e-13	AS=5.6e-13	PD=2.12e-06	PS=4.56e-06
+ simW=2e-06 fw=2e-06
MI19/I1/PM0	net73#19	I19/net1	VDD#539	VDD	pmos1v
+ L=1e-07	W=1e-06
+ AD=2.8e-13	AS=2.8e-13	PD=2.56e-06	PS=2.56e-06
+ simW=1e-06 fw=1e-06
MI19/I0/PM0	I19/net1#12	net74#4	I19/I0/net1	VDD	pmos1v
+ L=1e-07	W=2e-06
+ AD=5.6e-13	AS=1.2e-13	PD=4.56e-06	PS=2.12e-06
+ simW=2e-06 fw=2e-06
MI19/I0/PM1	I19/I0/net1	net75	VDD#546	VDD	pmos1v	L=1e-07
+ W=2e-06
+ AD=1.2e-13	AS=5.6e-13	PD=2.12e-06	PS=4.56e-06
+ simW=2e-06 fw=2e-06
MI24/I1/PM0	net90#19	I24/net1	VDD#297	VDD	pmos1v
+ L=1e-07	W=1e-06
+ AD=2.8e-13	AS=2.8e-13	PD=2.56e-06	PS=2.56e-06
+ simW=1e-06 fw=1e-06
MI24/I0/PM0	I24/net1#12	net15#20	I24/I0/net1	VDD	pmos1v
+ L=1e-07	W=2e-06
+ AD=5.6e-13	AS=1.2e-13	PD=4.56e-06	PS=2.12e-06
+ simW=2e-06 fw=2e-06
MI24/I0/PM1	I24/I0/net1	net89	VDD#304	VDD	pmos1v	L=1e-07
+ W=2e-06
+ AD=1.2e-13	AS=5.6e-13	PD=2.12e-06	PS=4.56e-06
+ simW=2e-06 fw=2e-06
MI8/I1/PM0	I8/net1#12	Xk3#1	VDD#681	VDD	pmos1v	L=1e-07
+ W=1e-06
+ AD=2.8e-13	AS=2.8e-13	PD=2.56e-06	PS=2.56e-06
+ simW=1e-06 fw=1e-06
MI8/I2/PM0	I8/net2#12	Yk3#1	VDD#33	VDD	pmos1v	L=1e-07
+ W=1e-06
+ AD=2.8e-13	AS=2.8e-13	PD=2.56e-06	PS=2.56e-06
+ simW=1e-06 fw=1e-06
MI8/I0/PM3	net18#25	Xk3#12	I8/I0/net7#4	VDD	pmos1v	L=1e-07
+ W=2e-06
+ AD=5.6e-13	AS=3.2e-13	PD=4.56e-06	PS=2.32e-06
+ simW=2e-06 fw=2e-06
MI8/I0/PM1	net18#29	Yk3#11	I8/I0/net7#4	VDD	pmos1v	L=1e-07
+ W=2e-06
+ AD=5.6e-13	AS=3.2e-13	PD=4.56e-06	PS=2.32e-06
+ simW=2e-06 fw=2e-06
MI8/I0/PM2	I8/I0/net7	I8/net2	VDD#124	VDD	pmos1v
+ L=1e-07	W=2e-06
+ AD=3.2e-13	AS=5.6e-13	PD=2.32e-06	PS=4.56e-06
+ simW=2e-06 fw=2e-06
MI8/I0/PM0	I8/I0/net7	I8/net1#4	VDD#118	VDD	pmos1v
+ L=1e-07	W=2e-06
+ AD=3.2e-13	AS=5.6e-13	PD=2.32e-06	PS=4.56e-06
+ simW=2e-06 fw=2e-06
MI17/I1/PM0	I17/net1#12	Xk2#1	VDD#147	VDD	pmos1v	L=1e-07
+ W=1e-06
+ AD=2.8e-13	AS=2.8e-13	PD=2.56e-06	PS=2.56e-06
+ simW=1e-06 fw=1e-06
MI17/I2/PM0	I17/net2#12	Yk2#1	VDD#24	VDD	pmos1v	L=1e-07
+ W=1e-06
+ AD=2.8e-13	AS=2.8e-13	PD=2.56e-06	PS=2.56e-06
+ simW=1e-06 fw=1e-06
MI17/I0/PM3	net17#33	Xk2#12	I17/I0/net7#4	VDD	pmos1v	L=1e-07
+ W=2e-06
+ AD=5.6e-13	AS=3.2e-13	PD=4.56e-06	PS=2.32e-06
+ simW=2e-06 fw=2e-06
MI17/I0/PM1	net17#37	Yk2#11	I17/I0/net7#4	VDD	pmos1v	L=1e-07
+ W=2e-06
+ AD=5.6e-13	AS=3.2e-13	PD=4.56e-06	PS=2.32e-06
+ simW=2e-06 fw=2e-06
MI17/I0/PM2	I17/I0/net7	I17/net2	VDD#71	VDD	pmos1v	L=1e-07
+ W=2e-06
+ AD=3.2e-13	AS=5.6e-13	PD=2.32e-06	PS=4.56e-06
+ simW=2e-06 fw=2e-06
MI17/I0/PM0	I17/I0/net7	I17/net1#4	VDD#65	VDD	pmos1v	L=1e-07
+ W=2e-06
+ AD=3.2e-13	AS=5.6e-13	PD=2.32e-06	PS=4.56e-06
+ simW=2e-06 fw=2e-06
MI9/I1/PM0	I9/net1#12	net18#17	VDD#603	VDD	pmos1v
+ L=1e-07	W=1e-06
+ AD=2.8e-13	AS=2.8e-13	PD=2.56e-06	PS=2.56e-06
+ simW=1e-06 fw=1e-06
MI9/I2/PM0	I9/net2#12	net32	VDD#570	VDD	pmos1v	L=1e-07
+ W=1e-06
+ AD=2.8e-13	AS=2.8e-13	PD=2.56e-06	PS=2.56e-06
+ simW=1e-06 fw=1e-06
MI9/I0/PM3	SUMk3#1	net18#24	I9/I0/net7#4	VDD	pmos1v
+ L=1e-07	W=2e-06
+ AD=5.6e-13	AS=3.2e-13	PD=4.56e-06	PS=2.32e-06
+ simW=2e-06 fw=2e-06
MI9/I0/PM1	SUMk3#5	net32#7	I9/I0/net7#4	VDD	pmos1v
+ L=1e-07	W=2e-06
+ AD=5.6e-13	AS=3.2e-13	PD=4.56e-06	PS=2.32e-06
+ simW=2e-06 fw=2e-06
MI9/I0/PM2	I9/I0/net7	I9/net2	VDD#589	VDD	pmos1v
+ L=1e-07	W=2e-06
+ AD=3.2e-13	AS=5.6e-13	PD=2.32e-06	PS=4.56e-06
+ simW=2e-06 fw=2e-06
MI9/I0/PM0	I9/I0/net7	I9/net1#4	VDD#583	VDD	pmos1v
+ L=1e-07	W=2e-06
+ AD=3.2e-13	AS=5.6e-13	PD=2.32e-06	PS=4.56e-06
+ simW=2e-06 fw=2e-06
MI18/I1/PM0	I18/net1#12	net17#25	VDD#626	VDD	pmos1v
+ L=1e-07	W=1e-06
+ AD=2.8e-13	AS=2.8e-13	PD=2.56e-06	PS=2.56e-06
+ simW=1e-06 fw=1e-06
MI18/I2/PM0	I18/net2#12	net73	VDD#579	VDD	pmos1v	L=1e-07
+ W=1e-06
+ AD=2.8e-13	AS=2.8e-13	PD=2.56e-06	PS=2.56e-06
+ simW=1e-06 fw=1e-06
MI18/I0/PM3	SUMk2#1	net17#32	I18/I0/net7#4	VDD	pmos1v
+ L=1e-07	W=2e-06
+ AD=5.6e-13	AS=3.2e-13	PD=4.56e-06	PS=2.32e-06
+ simW=2e-06 fw=2e-06
MI18/I0/PM1	SUMk2#5	net73#7	I18/I0/net7#4	VDD	pmos1v
+ L=1e-07	W=2e-06
+ AD=5.6e-13	AS=3.2e-13	PD=4.56e-06	PS=2.32e-06
+ simW=2e-06 fw=2e-06
MI18/I0/PM2	I18/I0/net7	I18/net2	VDD#612	VDD	pmos1v
+ L=1e-07	W=2e-06
+ AD=3.2e-13	AS=5.6e-13	PD=2.32e-06	PS=4.56e-06
+ simW=2e-06 fw=2e-06
MI18/I0/PM0	I18/I0/net7	I18/net1#4	VDD#606	VDD	pmos1v
+ L=1e-07	W=2e-06
+ AD=3.2e-13	AS=5.6e-13	PD=2.32e-06	PS=4.56e-06
+ simW=2e-06 fw=2e-06
MI27/I1/PM0	I27/net1#12	Xk1#1	VDD#215	VDD	pmos1v	L=1e-07
+ W=1e-06
+ AD=2.8e-13	AS=2.8e-13	PD=2.56e-06	PS=2.56e-06
+ simW=1e-06 fw=1e-06
MI27/I2/PM0	I27/net2#12	Yk1#1	VDD#6	VDD	pmos1v	L=1e-07
+ W=1e-06
+ AD=2.8e-13	AS=2.8e-13	PD=2.56e-06	PS=2.56e-06
+ simW=1e-06 fw=1e-06
MI27/I0/PM3	net16#33	Xk1#12	I27/I0/net7#4	VDD	pmos1v	L=1e-07
+ W=2e-06
+ AD=5.6e-13	AS=3.2e-13	PD=4.56e-06	PS=2.32e-06
+ simW=2e-06 fw=2e-06
MI27/I0/PM1	net16#37	Yk1#11	I27/I0/net7#4	VDD	pmos1v	L=1e-07
+ W=2e-06
+ AD=5.6e-13	AS=3.2e-13	PD=4.56e-06	PS=2.32e-06
+ simW=2e-06 fw=2e-06
MI27/I0/PM2	I27/I0/net7	I27/net2	VDD#43	VDD	pmos1v	L=1e-07
+ W=2e-06
+ AD=3.2e-13	AS=5.6e-13	PD=2.32e-06	PS=4.56e-06
+ simW=2e-06 fw=2e-06
MI27/I0/PM0	I27/I0/net7	I27/net1#4	VDD#37	VDD	pmos1v	L=1e-07
+ W=2e-06
+ AD=3.2e-13	AS=5.6e-13	PD=2.32e-06	PS=4.56e-06
+ simW=2e-06 fw=2e-06
MI31/I1/PM0	I31/net1#12	net90	VDD#514	VDD	pmos1v	L=1e-07
+ W=1e-06
+ AD=2.8e-13	AS=2.8e-13	PD=2.56e-06	PS=2.56e-06
+ simW=1e-06 fw=1e-06
MI31/I2/PM0	I31/net2#12	net16#25	VDD#430	VDD	pmos1v
+ L=1e-07	W=1e-06
+ AD=2.8e-13	AS=2.8e-13	PD=2.56e-06	PS=2.56e-06
+ simW=1e-06 fw=1e-06
MI31/I0/PM3	SUMk1#1	net90#8	I31/I0/net7#4	VDD	pmos1v
+ L=1e-07	W=2e-06
+ AD=5.6e-13	AS=3.2e-13	PD=4.56e-06	PS=2.32e-06
+ simW=2e-06 fw=2e-06
MI31/I0/PM1	SUMk1#5	net16#31	I31/I0/net7#4	VDD	pmos1v
+ L=1e-07	W=2e-06
+ AD=5.6e-13	AS=3.2e-13	PD=4.56e-06	PS=2.32e-06
+ simW=2e-06 fw=2e-06
MI31/I0/PM2	I31/I0/net7	I31/net2	VDD#490	VDD	pmos1v
+ L=1e-07	W=2e-06
+ AD=3.2e-13	AS=5.6e-13	PD=2.32e-06	PS=4.56e-06
+ simW=2e-06 fw=2e-06
MI31/I0/PM0	I31/I0/net7	I31/net1#4	VDD#484	VDD	pmos1v
+ L=1e-07	W=2e-06
+ AD=3.2e-13	AS=5.6e-13	PD=2.32e-06	PS=4.56e-06
+ simW=2e-06 fw=2e-06
MI28/I1/PM0	I28/net1#12	Xk#1	VDD#138	VDD	pmos1v	L=1e-07
+ W=1e-06
+ AD=2.8e-13	AS=2.8e-13	PD=2.56e-06	PS=2.56e-06
+ simW=1e-06 fw=1e-06
MI28/I2/PM0	I28/net2#12	Yk#1	VDD#15	VDD	pmos1v	L=1e-07
+ W=1e-06
+ AD=2.8e-13	AS=2.8e-13	PD=2.56e-06	PS=2.56e-06
+ simW=1e-06 fw=1e-06
MI28/I0/PM3	net20#21	Xk#12	I28/I0/net7#4	VDD	pmos1v	L=1e-07
+ W=2e-06
+ AD=5.6e-13	AS=3.2e-13	PD=4.56e-06	PS=2.32e-06
+ simW=2e-06 fw=2e-06
MI28/I0/PM1	net20#25	Yk#11	I28/I0/net7#4	VDD	pmos1v	L=1e-07
+ W=2e-06
+ AD=5.6e-13	AS=3.2e-13	PD=4.56e-06	PS=2.32e-06
+ simW=2e-06 fw=2e-06
MI28/I0/PM2	I28/I0/net7	I28/net2	VDD#57	VDD	pmos1v	L=1e-07
+ W=2e-06
+ AD=3.2e-13	AS=5.6e-13	PD=2.32e-06	PS=4.56e-06
+ simW=2e-06 fw=2e-06
MI28/I0/PM0	I28/I0/net7	I28/net1#4	VDD#51	VDD	pmos1v	L=1e-07
+ W=2e-06
+ AD=3.2e-13	AS=5.6e-13	PD=2.32e-06	PS=4.56e-06
+ simW=2e-06 fw=2e-06
MI32/I1/PM0	I32/net1#12	net20#13	VDD#504	VDD	pmos1v
+ L=1e-07	W=1e-06
+ AD=2.8e-13	AS=2.8e-13	PD=2.56e-06	PS=2.56e-06
+ simW=1e-06 fw=1e-06
MI32/I2/PM0	I32/net2#12	Ck#17	VDD#421	VDD	pmos1v	L=1e-07
+ W=1e-06
+ AD=2.8e-13	AS=2.8e-13	PD=2.56e-06	PS=2.56e-06
+ simW=1e-06 fw=1e-06
MI32/I0/PM3	SUMk#1	net20#20	I32/I0/net7#4	VDD	pmos1v	L=1e-07
+ W=2e-06
+ AD=5.6e-13	AS=3.2e-13	PD=4.56e-06	PS=2.32e-06
+ simW=2e-06 fw=2e-06
MI32/I0/PM1	SUMk#5	Ck#23	I32/I0/net7#4	VDD	pmos1v	L=1e-07
+ W=2e-06
+ AD=5.6e-13	AS=3.2e-13	PD=4.56e-06	PS=2.32e-06
+ simW=2e-06 fw=2e-06
MI32/I0/PM2	I32/I0/net7	I32/net2	VDD#476	VDD	pmos1v
+ L=1e-07	W=2e-06
+ AD=3.2e-13	AS=5.6e-13	PD=2.32e-06	PS=4.56e-06
+ simW=2e-06 fw=2e-06
MI32/I0/PM0	I32/I0/net7	I32/net1#4	VDD#470	VDD	pmos1v
+ L=1e-07	W=2e-06
+ AD=3.2e-13	AS=5.6e-13	PD=2.32e-06	PS=4.56e-06
+ simW=2e-06 fw=2e-06
MI4/I0/PM1	I4/net1#12	net18	VDD#666	VDD	pmos1v	L=1e-07
+ W=1e-06
+ AD=1.6e-13	AS=2.8e-13	PD=1.32e-06	PS=2.56e-06
+ simW=1e-06 fw=1e-06
MI4/I0/PM0	I4/net1#12	net30#4	VDD#672	VDD	pmos1v
+ L=1e-07	W=1e-06
+ AD=1.6e-13	AS=2.8e-13	PD=1.32e-06	PS=2.56e-06
+ simW=1e-06 fw=1e-06
MI4/I1/PM0	net1#14	I4/net1	VDD#655	VDD	pmos1v
+ L=1e-07	W=1e-06
+ AD=2.8e-13	AS=2.8e-13	PD=2.56e-06	PS=2.56e-06
+ simW=1e-06 fw=1e-06
MI7/I0/PM1	I7/net1#12	Xk3#5	VDD#109	VDD	pmos1v	L=1e-07
+ W=1e-06
+ AD=1.6e-13	AS=2.8e-13	PD=1.32e-06	PS=2.56e-06
+ simW=1e-06 fw=1e-06
MI7/I0/PM0	I7/net1#12	Yk3#8	VDD#115	VDD	pmos1v	L=1e-07
+ W=1e-06
+ AD=1.6e-13	AS=2.8e-13	PD=1.32e-06	PS=2.56e-06
+ simW=1e-06 fw=1e-06
MI7/I1/PM0	net14#5	I7/net1	VDD#104	VDD	pmos1v
+ L=1e-07	W=1e-06
+ AD=2.8e-13	AS=2.8e-13	PD=2.56e-06	PS=2.56e-06
+ simW=1e-06 fw=1e-06
MI6/I0/PM1	I6/net1#12	net4	VDD#335	VDD	pmos1v	L=1e-07
+ W=1e-06
+ AD=1.6e-13	AS=2.8e-13	PD=1.32e-06	PS=2.56e-06
+ simW=1e-06 fw=1e-06
MI6/I0/PM0	I6/net1#12	Ck#8	VDD#341	VDD	pmos1v	L=1e-07
+ W=1e-06
+ AD=1.6e-13	AS=2.8e-13	PD=1.32e-06	PS=2.56e-06
+ simW=1e-06 fw=1e-06
MI6/I1/PM0	net5#5	I6/net1	VDD#330	VDD	pmos1v	L=1e-07
+ W=1e-06
+ AD=2.8e-13	AS=2.8e-13	PD=2.56e-06	PS=2.56e-06
+ simW=1e-06 fw=1e-06
MI10/I0/PM1	I10/net1#12	net17	VDD#407	VDD	pmos1v	L=1e-07
+ W=1e-06
+ AD=1.6e-13	AS=2.8e-13	PD=1.32e-06	PS=2.56e-06
+ simW=1e-06 fw=1e-06
MI10/I0/PM0	I10/net1#12	net25#4	VDD#413	VDD	pmos1v
+ L=1e-07	W=1e-06
+ AD=1.6e-13	AS=2.8e-13	PD=1.32e-06	PS=2.56e-06
+ simW=1e-06 fw=1e-06
MI10/I1/PM0	net53#14	I10/net1	VDD#397	VDD	pmos1v
+ L=1e-07	W=1e-06
+ AD=2.8e-13	AS=2.8e-13	PD=2.56e-06	PS=2.56e-06
+ simW=1e-06 fw=1e-06
MI14/I0/PM1	I14/net1#12	net19	VDD#374	VDD	pmos1v	L=1e-07
+ W=1e-06
+ AD=1.6e-13	AS=2.8e-13	PD=1.32e-06	PS=2.56e-06
+ simW=1e-06 fw=1e-06
MI14/I0/PM0	I14/net1#12	Ck#12	VDD#389	VDD	pmos1v	L=1e-07
+ W=1e-06
+ AD=1.6e-13	AS=2.8e-13	PD=1.32e-06	PS=2.56e-06
+ simW=1e-06 fw=1e-06
MI14/I1/PM0	net66#14	I14/net1	VDD#369	VDD	pmos1v
+ L=1e-07	W=1e-06
+ AD=2.8e-13	AS=2.8e-13	PD=2.56e-06	PS=2.56e-06
+ simW=1e-06 fw=1e-06
MI16/I0/PM1	I16/net1#12	Xk2#5	VDD#162	VDD	pmos1v	L=1e-07
+ W=1e-06
+ AD=1.6e-13	AS=2.8e-13	PD=1.32e-06	PS=2.56e-06
+ simW=1e-06 fw=1e-06
MI16/I0/PM0	I16/net1#12	Yk2#8	VDD#168	VDD	pmos1v	L=1e-07
+ W=1e-06
+ AD=1.6e-13	AS=2.8e-13	PD=1.32e-06	PS=2.56e-06
+ simW=1e-06 fw=1e-06
MI16/I1/PM0	net30#15	I16/net1	VDD#157	VDD	pmos1v
+ L=1e-07	W=1e-06
+ AD=2.8e-13	AS=2.8e-13	PD=2.56e-06	PS=2.56e-06
+ simW=1e-06 fw=1e-06
MI21/I0/PM1	I21/net1#12	net16	VDD#200	VDD	pmos1v	L=1e-07
+ W=1e-06
+ AD=1.6e-13	AS=2.8e-13	PD=1.32e-06	PS=2.56e-06
+ simW=1e-06 fw=1e-06
MI21/I0/PM0	I21/net1#12	net15#4	VDD#205	VDD	pmos1v
+ L=1e-07	W=1e-06
+ AD=1.6e-13	AS=2.8e-13	PD=1.32e-06	PS=2.56e-06
+ simW=1e-06 fw=1e-06
MI21/I1/PM0	net91#14	I21/net1	VDD#195	VDD	pmos1v
+ L=1e-07	W=1e-06
+ AD=2.8e-13	AS=2.8e-13	PD=2.56e-06	PS=2.56e-06
+ simW=1e-06 fw=1e-06
MI20/I0/PM1	I20/net1#12	net92	VDD#444	VDD	pmos1v	L=1e-07
+ W=1e-06
+ AD=1.6e-13	AS=2.8e-13	PD=1.32e-06	PS=2.56e-06
+ simW=1e-06 fw=1e-06
MI20/I0/PM0	I20/net1#12	Ck#16	VDD#458	VDD	pmos1v	L=1e-07
+ W=1e-06
+ AD=1.6e-13	AS=2.8e-13	PD=1.32e-06	PS=2.56e-06
+ simW=1e-06 fw=1e-06
MI20/I1/PM0	net75#5	I20/net1	VDD#439	VDD	pmos1v
+ L=1e-07	W=1e-06
+ AD=2.8e-13	AS=2.8e-13	PD=2.56e-06	PS=2.56e-06
+ simW=1e-06 fw=1e-06
MI22/I0/PM1	I22/net1#12	net16#5	VDD#462	VDD	pmos1v
+ L=1e-07	W=1e-06
+ AD=1.6e-13	AS=2.8e-13	PD=1.32e-06	PS=2.56e-06
+ simW=1e-06 fw=1e-06
MI22/I0/PM0	I22/net1#12	net20#4	VDD#467	VDD	pmos1v
+ L=1e-07	W=1e-06
+ AD=1.6e-13	AS=2.8e-13	PD=1.32e-06	PS=2.56e-06
+ simW=1e-06 fw=1e-06
MI22/I1/PM0	net92#14	I22/net1	VDD#453	VDD	pmos1v
+ L=1e-07	W=1e-06
+ AD=2.8e-13	AS=2.8e-13	PD=2.56e-06	PS=2.56e-06
+ simW=1e-06 fw=1e-06
MI26/I0/PM1	I26/net1#12	Xk1#5	VDD#89	VDD	pmos1v	L=1e-07
+ W=1e-06
+ AD=1.6e-13	AS=2.8e-13	PD=1.32e-06	PS=2.56e-06
+ simW=1e-06 fw=1e-06
MI26/I0/PM0	I26/net1#12	Yk1#8	VDD#96	VDD	pmos1v	L=1e-07
+ W=1e-06
+ AD=1.6e-13	AS=2.8e-13	PD=1.32e-06	PS=2.56e-06
+ simW=1e-06 fw=1e-06
MI26/I1/PM0	net25#23	I26/net1	VDD#84	VDD	pmos1v	L=1e-07
+ W=1e-06
+ AD=2.8e-13	AS=2.8e-13	PD=2.56e-06	PS=2.56e-06
+ simW=1e-06 fw=1e-06
MI30/I0/PM1	I30/net1#12	Ck#1	VDD#316	VDD	pmos1v	L=1e-07
+ W=1e-06
+ AD=1.6e-13	AS=2.8e-13	PD=1.32e-06	PS=2.56e-06
+ simW=1e-06 fw=1e-06
MI30/I0/PM0	I30/net1#12	net15#8	VDD#322	VDD	pmos1v
+ L=1e-07	W=1e-06
+ AD=1.6e-13	AS=2.8e-13	PD=1.32e-06	PS=2.56e-06
+ simW=1e-06 fw=1e-06
MI30/I1/PM0	net89#14	I30/net1	VDD#312	VDD	pmos1v
+ L=1e-07	W=1e-06
+ AD=2.8e-13	AS=2.8e-13	PD=2.56e-06	PS=2.56e-06
+ simW=1e-06 fw=1e-06
MI29/I0/PM1	I29/net1#12	Xk#5	VDD#181	VDD	pmos1v	L=1e-07
+ W=1e-06
+ AD=1.6e-13	AS=2.8e-13	PD=1.32e-06	PS=2.56e-06
+ simW=1e-06 fw=1e-06
MI29/I0/PM0	I29/net1#12	Yk#8	VDD#187	VDD	pmos1v	L=1e-07
+ W=1e-06
+ AD=1.6e-13	AS=2.8e-13	PD=1.32e-06	PS=2.56e-06
+ simW=1e-06 fw=1e-06
MI29/I1/PM0	net15#39	I29/net1	VDD#176	VDD	pmos1v
+ L=1e-07	W=1e-06
+ AD=2.8e-13	AS=2.8e-13	PD=2.56e-06	PS=2.56e-06
+ simW=1e-06 fw=1e-06
*
*
*       RESISTOR AND CAP/DIODE CARDS
*
Rj1	Xk1#1	Xk1#2	39.068787	$poly	$W=1e-07
Rj2	Xk1#2	Xk1#3	3.319373	$poly	$W=2e-07
Rj3	Xk1#2	Xk1#4	52.068787	$poly	$W=1e-07
Rj4	Yk1#1	Yk1#2	39.068787	$poly	$W=1e-07
Rj5	Yk1#2	Yk1#3	3.319373	$poly	$W=2e-07
Rj6	Yk1#2	Yk1#4	52.068787	$poly	$W=1e-07
Rj7	Xk#1	Xk#2	39.068787	$poly	$W=1e-07
Rj8	Xk#2	Xk#3	3.319373	$poly	$W=2e-07
Rj9	Xk#2	Xk#4	52.068787	$poly	$W=1e-07
Rj10	Yk#1	Yk#2	39.068787	$poly	$W=1e-07
Rj11	Yk#2	Yk#3	3.319373	$poly	$W=2e-07
Rj12	Yk#2	Yk#4	52.068787	$poly	$W=1e-07
Rj13	Xk2#1	Xk2#2	39.068787	$poly	$W=1e-07
Rj14	Xk2#2	Xk2#3	3.319373	$poly	$W=2e-07
Rj15	Xk2#2	Xk2#4	52.068787	$poly	$W=1e-07
Rj16	Yk2#1	Yk2#2	39.068787	$poly	$W=1e-07
Rj17	Yk2#2	Yk2#3	3.319373	$poly	$W=2e-07
Rj18	Yk2#2	Yk2#4	52.068787	$poly	$W=1e-07
Rj19	Xk#5	Xk#6	63.068787	$poly	$W=1e-07
Rj20	Xk#6	Xk#7	3.319373	$poly	$W=2e-07
Rj21	Xk#6	Xk#8	86.068787	$poly	$W=1e-07
Rj22	Xk2#5	Xk2#6	63.068787	$poly	$W=1e-07
Rj23	Xk2#6	Xk2#7	3.319373	$poly	$W=2e-07
Rj24	Xk2#6	Xk2#8	86.068787	$poly	$W=1e-07
Rj25	Yk#5	Yk#6	3.319373	$poly	$W=2e-07
Rj26	Yk#6	Yk#7	128.243378	$poly	$W=1e-07
Rj27	Yk#6	Yk#8	32.068787	$poly	$W=1e-07
Rj28	Yk2#5	Yk2#6	3.319373	$poly	$W=2e-07
Rj29	Yk2#6	Yk2#7	128.243378	$poly	$W=1e-07
Rj30	Yk2#6	Yk2#8	32.068787	$poly	$W=1e-07
Rj31	Xk1#5	Xk1#6	63.068787	$poly	$W=1e-07
Rj32	Xk1#6	Xk1#7	3.319373	$poly	$W=2e-07
Rj33	Xk1#6	Xk1#8	86.068787	$poly	$W=1e-07
Rj34	Yk1#5	Yk1#6	3.319373	$poly	$W=2e-07
Rj35	Yk1#6	Yk1#7	128.243378	$poly	$W=1e-07
Rj36	Yk1#6	Yk1#8	32.068787	$poly	$W=1e-07
Rj37	Xk1#9	Xk1#10	206.243347	$poly	$W=1e-07
Rj38	Xk1#10	Xk1#11	3.319373	$poly	$W=2e-07
Rj39	Xk1#10	Xk1#12	79.068787	$poly	$W=1e-07
Rj40	Yk1#9	Yk1#10	73.068787	$poly	$W=1e-07
Rj41	Yk1#10	Yk1#11	192.243362	$poly	$W=1e-07
Rj42	Yk1#10	Yk1#12	3.319373	$poly	$W=2e-07
Rj43	Xk#9	Xk#10	206.243347	$poly	$W=1e-07
Rj44	Xk#10	Xk#11	3.319373	$poly	$W=2e-07
Rj45	Xk#10	Xk#12	79.068787	$poly	$W=1e-07
Rj46	I29/net1	I29/net1#2	39.068787	$poly	$W=1e-07
Rj47	I29/net1#2	I29/net1#3	3.319373	$poly	$W=2e-07
Rj48	I29/net1#2	I29/net1#4	52.068787	$poly	$W=1e-07
Rj49	Xk3#1	Xk3#2	39.068787	$poly	$W=1e-07
Rj50	Xk3#2	Xk3#3	3.319373	$poly	$W=2e-07
Rj51	Xk3#2	Xk3#4	52.068787	$poly	$W=1e-07
Rj52	Yk3#1	Yk3#2	39.068787	$poly	$W=1e-07
Rj53	Yk3#2	Yk3#3	3.319373	$poly	$W=2e-07
Rj54	Yk3#2	Yk3#4	52.068787	$poly	$W=1e-07
Rj55	Yk#9	Yk#10	73.068787	$poly	$W=1e-07
Rj56	Yk#10	Yk#11	192.243362	$poly	$W=1e-07
Rj57	Yk#10	Yk#12	3.319373	$poly	$W=2e-07
Rj58	I16/net1	I16/net1#2	39.068787	$poly	$W=1e-07
Rj59	I16/net1#2	I16/net1#3	3.319373	$poly	$W=2e-07
Rj60	I16/net1#2	I16/net1#4	52.068787	$poly	$W=1e-07
Rj61	Xk2#9	Xk2#10	206.243347	$poly	$W=1e-07
Rj62	Xk2#10	Xk2#11	3.319373	$poly	$W=2e-07
Rj63	Xk2#10	Xk2#12	79.068787	$poly	$W=1e-07
Rj64	Yk2#9	Yk2#10	73.068787	$poly	$W=1e-07
Rj65	Yk2#10	Yk2#11	192.243362	$poly	$W=1e-07
Rj66	Yk2#10	Yk2#12	3.319373	$poly	$W=2e-07
Rj67	I27/net2	I27/net2#2	190.243362	$poly	$W=1e-07
Rj68	I27/net2#2	I27/net2#3	73.068787	$poly	$W=1e-07
Rj69	I27/net2#2	I27/net2#4	3.319373	$poly	$W=2e-07
Rj70	I26/net1	I26/net1#2	39.068787	$poly	$W=1e-07
Rj71	I26/net1#2	I26/net1#3	3.319373	$poly	$W=2e-07
Rj72	I26/net1#2	I26/net1#4	52.068787	$poly	$W=1e-07
Rj73	I28/net2	I28/net2#2	190.243362	$poly	$W=1e-07
Rj74	I28/net2#2	I28/net2#3	73.068787	$poly	$W=1e-07
Rj75	I28/net2#2	I28/net2#4	3.319373	$poly	$W=2e-07
Rj76	I27/net1	I27/net1#2	3.319373	$poly	$W=2e-07
Rj77	I27/net1#2	I27/net1#3	202.243378	$poly	$W=1e-07
Rj78	I27/net1#2	I27/net1#4	81.068787	$poly	$W=1e-07
Rj79	I17/net2	I17/net2#2	190.243362	$poly	$W=1e-07
Rj80	I17/net2#2	I17/net2#3	73.068787	$poly	$W=1e-07
Rj81	I17/net2#2	I17/net2#4	3.319373	$poly	$W=2e-07
Rj82	I28/net1	I28/net1#2	3.319373	$poly	$W=2e-07
Rj83	I28/net1#2	I28/net1#3	202.243378	$poly	$W=1e-07
Rj84	I28/net1#2	I28/net1#4	81.068787	$poly	$W=1e-07
Rj85	Xk3#5	Xk3#6	63.068787	$poly	$W=1e-07
Rj86	Xk3#6	Xk3#7	3.319373	$poly	$W=2e-07
Rj87	Xk3#6	Xk3#8	86.068787	$poly	$W=1e-07
Rj88	I17/net1	I17/net1#2	3.319373	$poly	$W=2e-07
Rj89	I17/net1#2	I17/net1#3	202.243378	$poly	$W=1e-07
Rj90	I17/net1#2	I17/net1#4	81.068787	$poly	$W=1e-07
Rj91	Yk3#5	Yk3#6	3.319373	$poly	$W=2e-07
Rj92	Yk3#6	Yk3#7	128.243378	$poly	$W=1e-07
Rj93	Yk3#6	Yk3#8	32.068787	$poly	$W=1e-07
Rj94	Xk3#9	Xk3#10	206.243347	$poly	$W=1e-07
Rj95	Xk3#10	Xk3#11	3.319373	$poly	$W=2e-07
Rj96	Xk3#10	Xk3#12	79.068787	$poly	$W=1e-07
Rj97	Yk3#9	Yk3#10	73.068787	$poly	$W=1e-07
Rj98	Yk3#10	Yk3#11	192.243362	$poly	$W=1e-07
Rj99	Yk3#10	Yk3#12	3.319373	$poly	$W=2e-07
Rj100	I7/net1	I7/net1#2	39.068787	$poly	$W=1e-07
Rj101	I7/net1#2	I7/net1#3	3.319373	$poly	$W=2e-07
Rj102	I7/net1#2	I7/net1#4	52.068787	$poly	$W=1e-07
Rj103	I8/net2	I8/net2#2	190.243362	$poly	$W=1e-07
Rj104	I8/net2#2	I8/net2#3	73.068787	$poly	$W=1e-07
Rj105	I8/net2#2	I8/net2#4	3.319373	$poly	$W=2e-07
Rj106	I8/net1	I8/net1#2	3.319373	$poly	$W=2e-07
Rj107	I8/net1#2	I8/net1#3	202.243378	$poly	$W=1e-07
Rj108	I8/net1#2	I8/net1#4	81.068787	$poly	$W=1e-07
Rj109	net16	net16#2	63.068787	$poly	$W=1e-07
Rj110	net16#2	net16#3	3.319373	$poly	$W=2e-07
Rj111	net16#2	net16#4	86.068787	$poly	$W=1e-07
Rj112	net15	net15#2	3.319373	$poly	$W=2e-07
Rj113	net15#2	net15#3	128.243378	$poly	$W=1e-07
Rj114	net15#2	net15#4	32.068787	$poly	$W=1e-07
Rj115	net16#5	net16#6	63.068787	$poly	$W=1e-07
Rj116	net16#6	net16#7	3.319373	$poly	$W=2e-07
Rj117	net16#6	net16#8	86.068787	$poly	$W=1e-07
Rj118	I21/net1	I21/net1#2	39.068787	$poly	$W=1e-07
Rj119	I21/net1#2	I21/net1#3	3.319373	$poly	$W=2e-07
Rj120	I21/net1#2	I21/net1#4	52.068787	$poly	$W=1e-07
Rj121	net20	net20#2	3.319373	$poly	$W=2e-07
Rj122	net20#2	net20#3	128.243378	$poly	$W=1e-07
Rj123	net20#2	net20#4	32.068787	$poly	$W=1e-07
Rj124	Ck#1	Ck#2	63.068787	$poly	$W=1e-07
Rj125	Ck#2	Ck#3	3.319373	$poly	$W=2e-07
Rj126	Ck#2	Ck#4	86.068787	$poly	$W=1e-07
Rj127	I22/net1	I22/net1#2	39.068787	$poly	$W=1e-07
Rj128	I22/net1#2	I22/net1#3	3.319373	$poly	$W=2e-07
Rj129	I22/net1#2	I22/net1#4	52.068787	$poly	$W=1e-07
Rj130	net15#5	net15#6	3.319373	$poly	$W=2e-07
Rj131	net15#6	net15#7	128.243378	$poly	$W=1e-07
Rj132	net15#6	net15#8	32.068787	$poly	$W=1e-07
Rj133	I30/net1	I30/net1#2	39.068787	$poly	$W=1e-07
Rj134	I30/net1#2	I30/net1#3	3.319373	$poly	$W=2e-07
Rj135	I30/net1#2	I30/net1#4	52.068787	$poly	$W=1e-07
Rj136	net15#9	net15#10	179.417938	$poly	$W=1e-07
Rj137	net15#10	net15#11	3.319373	$poly	$W=2e-07
Rj138	net15#10	net15#12	36.068787	$poly	$W=1e-07
Rj139	net20#5	net20#6	179.417938	$poly	$W=1e-07
Rj140	net20#6	net20#7	3.319373	$poly	$W=2e-07
Rj141	net20#6	net20#8	36.068787	$poly	$W=1e-07
Rj142	net16#9	net16#10	94.617226	$poly	$W=1e-07
Rj143	net16#10	net16#11	18.452610	$poly	$W=1e-07
Rj144	net16#10	net16#12	69.617226	$poly	$W=1e-07
Rj145	net16#13	net16#14	94.617226	$poly	$W=1e-07
Rj146	net16#14	net16#15	18.452610	$poly	$W=1e-07
Rj147	net16#14	net16#16	69.617226	$poly	$W=1e-07
Rj148	net17	net17#2	63.068787	$poly	$W=1e-07
Rj149	net17#2	net17#3	3.319373	$poly	$W=2e-07
Rj150	net17#2	net17#4	86.068787	$poly	$W=1e-07
Rj151	net17#5	net17#6	17.452608	$poly	$W=1e-07
Rj152	net17#6	net17#7	69.617226	$poly	$W=1e-07
Rj153	net17#6	net17#8	105.791801	$poly	$W=1e-07
Rj154	net17#9	net17#10	17.452608	$poly	$W=1e-07
Rj155	net17#10	net17#11	69.617226	$poly	$W=1e-07
Rj156	net17#10	net17#12	105.791801	$poly	$W=1e-07
Rj157	net25	net25#2	3.319373	$poly	$W=2e-07
Rj158	net25#2	net25#3	128.243378	$poly	$W=1e-07
Rj159	net25#2	net25#4	32.068787	$poly	$W=1e-07
Rj160	net18	net18#2	63.068787	$poly	$W=1e-07
Rj161	net18#2	net18#3	3.319373	$poly	$W=2e-07
Rj162	net18#2	net18#4	86.068787	$poly	$W=1e-07
Rj163	net20#9	net20#10	197.417953	$poly	$W=1e-07
Rj164	net20#10	net20#11	3.319373	$poly	$W=2e-07
Rj165	net20#10	net20#12	29.068785	$poly	$W=1e-07
Rj166	net15#13	net15#14	197.417953	$poly	$W=1e-07
Rj167	net15#14	net15#15	3.319373	$poly	$W=2e-07
Rj168	net15#14	net15#16	29.068785	$poly	$W=1e-07
Rj169	net30	net30#2	3.319373	$poly	$W=2e-07
Rj170	net30#2	net30#3	128.243378	$poly	$W=1e-07
Rj171	net30#2	net30#4	32.068787	$poly	$W=1e-07
Rj172	net25#5	net25#6	179.417938	$poly	$W=1e-07
Rj173	net25#6	net25#7	3.319373	$poly	$W=2e-07
Rj174	net25#6	net25#8	36.068787	$poly	$W=1e-07
Rj175	net16#17	net16#18	92.617226	$poly	$W=1e-07
Rj176	net16#18	net16#19	17.452610	$poly	$W=1e-07
Rj177	net16#18	net16#20	96.617226	$poly	$W=1e-07
Rj178	net16#21	net16#22	92.617226	$poly	$W=1e-07
Rj179	net16#22	net16#23	17.452610	$poly	$W=1e-07
Rj180	net16#22	net16#24	96.617226	$poly	$W=1e-07
Rj181	net17#13	net17#14	94.617226	$poly	$W=1e-07
Rj182	net17#14	net17#15	18.452610	$poly	$W=1e-07
Rj183	net17#14	net17#16	69.617226	$poly	$W=1e-07
Rj184	I11/net1	I11/net1#2	39.068787	$poly	$W=1e-07
Rj185	I11/net1#2	I11/net1#3	3.319373	$poly	$W=2e-07
Rj186	I11/net1#2	I11/net1#4	52.068787	$poly	$W=1e-07
Rj187	net17#17	net17#18	19.452610	$poly	$W=1e-07
Rj188	net17#18	net17#19	96.617226	$poly	$W=1e-07
Rj189	net17#18	net17#20	103.791801	$poly	$W=1e-07
Rj190	net17#21	net17#22	19.452610	$poly	$W=1e-07
Rj191	net17#22	net17#23	96.617226	$poly	$W=1e-07
Rj192	net17#22	net17#24	103.791801	$poly	$W=1e-07
Rj193	net18#5	net18#6	17.452608	$poly	$W=1e-07
Rj194	net18#6	net18#7	69.617226	$poly	$W=1e-07
Rj195	net18#6	net18#8	105.791801	$poly	$W=1e-07
Rj196	I12/net1	I12/net1#2	39.068787	$poly	$W=1e-07
Rj197	I12/net1#2	I12/net1#3	3.319373	$poly	$W=2e-07
Rj198	I12/net1#2	I12/net1#4	52.068787	$poly	$W=1e-07
Rj199	I10/net1	I10/net1#2	39.068787	$poly	$W=1e-07
Rj200	I10/net1#2	I10/net1#3	3.319373	$poly	$W=2e-07
Rj201	I10/net1#2	I10/net1#4	52.068787	$poly	$W=1e-07
Rj202	net18#9	net18#10	122.068542	$poly	$W=1e-07
Rj203	net18#10	net18#11	85.408562	$poly	$W=1e-07
Rj204	net18#10	net18#12	6.577009	$poly	$W=2e-07
Rj205	net18#13	net18#14	122.068542	$poly	$W=1e-07
Rj206	net18#14	net18#15	85.408562	$poly	$W=1e-07
Rj207	net18#14	net18#16	6.577009	$poly	$W=2e-07
Rj208	I4/net1	I4/net1#2	39.068787	$poly	$W=1e-07
Rj209	I4/net1#2	I4/net1#3	3.319373	$poly	$W=2e-07
Rj210	I4/net1#2	I4/net1#4	52.068787	$poly	$W=1e-07
Rj211	I3/net1	I3/net1#2	39.068787	$poly	$W=1e-07
Rj212	I3/net1#2	I3/net1#3	3.319373	$poly	$W=2e-07
Rj213	I3/net1#2	I3/net1#4	52.068787	$poly	$W=1e-07
Rj214	I2/net1	I2/net1#2	39.068787	$poly	$W=1e-07
Rj215	I2/net1#2	I2/net1#3	3.319373	$poly	$W=2e-07
Rj216	I2/net1#2	I2/net1#4	52.068787	$poly	$W=1e-07
Rj217	I1/net1	I1/net1#2	39.068787	$poly	$W=1e-07
Rj218	I1/net1#2	I1/net1#3	3.319373	$poly	$W=2e-07
Rj219	I1/net1#2	I1/net1#4	52.068787	$poly	$W=1e-07
Rj220	net89	net89#2	40.617226	$poly	$W=1e-07
Rj221	net89#2	net89#3	32.452610	$poly	$W=1e-07
Rj222	net89#2	net89#4	90.791801	$poly	$W=1e-07
Rj223	net15#17	net15#18	3.319373	$poly	$W=2e-07
Rj224	net15#18	net15#19	47.068787	$poly	$W=1e-07
Rj225	net15#18	net15#20	72.068787	$poly	$W=1e-07
Rj226	net91	net91#2	40.617226	$poly	$W=1e-07
Rj227	net91#2	net91#3	32.452610	$poly	$W=1e-07
Rj228	net91#2	net91#4	90.791801	$poly	$W=1e-07
Rj229	net25#9	net25#10	3.319373	$poly	$W=2e-07
Rj230	net25#10	net25#11	47.068787	$poly	$W=1e-07
Rj231	net25#10	net25#12	72.068787	$poly	$W=1e-07
Rj232	I24/net1	I24/net1#2	39.068787	$poly	$W=1e-07
Rj233	I24/net1#2	I24/net1#3	3.319373	$poly	$W=2e-07
Rj234	I24/net1#2	I24/net1#4	52.068787	$poly	$W=1e-07
Rj235	net30#5	net30#6	62.243359	$poly	$W=1e-07
Rj236	net30#6	net30#7	3.319373	$poly	$W=2e-07
Rj237	net30#6	net30#8	109.068787	$poly	$W=1e-07
Rj238	net4	net4#2	63.068787	$poly	$W=1e-07
Rj239	net4#2	net4#3	3.319373	$poly	$W=2e-07
Rj240	net4#2	net4#4	86.068787	$poly	$W=1e-07
Rj241	net53	net53#2	94.068787	$poly	$W=1e-07
Rj242	net53#2	net53#3	0.819373	$poly	$W=2e-07
Rj243	net53#2	net53#4	66.068787	$poly	$W=1e-07
Rj244	Ck#5	Ck#6	3.319373	$poly	$W=2e-07
Rj245	Ck#6	Ck#7	128.243378	$poly	$W=1e-07
Rj246	Ck#6	Ck#8	32.068787	$poly	$W=1e-07
Rj247	I23/net1	I23/net1#2	39.068787	$poly	$W=1e-07
Rj248	I23/net1#2	I23/net1#3	3.319373	$poly	$W=2e-07
Rj249	I23/net1#2	I23/net1#4	52.068787	$poly	$W=1e-07
Rj250	net54	net54#2	48.452606	$poly	$W=1e-07
Rj251	net54#2	net54#3	94.617226	$poly	$W=1e-07
Rj252	net54#2	net54#4	77.791801	$poly	$W=1e-07
Rj253	I6/net1	I6/net1#2	39.068787	$poly	$W=1e-07
Rj254	I6/net1#2	I6/net1#3	3.319373	$poly	$W=2e-07
Rj255	I6/net1#2	I6/net1#4	52.068787	$poly	$W=1e-07
Rj256	I13/net1	I13/net1#2	39.068787	$poly	$W=1e-07
Rj257	I13/net1#2	I13/net1#3	3.319373	$poly	$W=2e-07
Rj258	I13/net1#2	I13/net1#4	52.068787	$poly	$W=1e-07
Rj259	net14	net14#2	75.243362	$poly	$W=1e-07
Rj260	net14#2	net14#3	3.319373	$poly	$W=2e-07
Rj261	net14#2	net14#4	139.243362	$poly	$W=1e-07
Rj262	net1	net1#2	92.617226	$poly	$W=1e-07
Rj263	net1#2	net1#3	18.452610	$poly	$W=1e-07
Rj264	net1#2	net1#4	84.617226	$poly	$W=1e-07
Rj265	net2	net2#2	18.452610	$poly	$W=1e-07
Rj266	net2#2	net2#3	92.617226	$poly	$W=1e-07
Rj267	net2#2	net2#4	95.791801	$poly	$W=1e-07
Rj268	net3	net3#2	3.319373	$poly	$W=2e-07
Rj269	net3#2	net3#3	162.243362	$poly	$W=1e-07
Rj270	net3#2	net3#4	45.068783	$poly	$W=1e-07
Rj271	net19	net19#2	63.068787	$poly	$W=1e-07
Rj272	net19#2	net19#3	3.319373	$poly	$W=2e-07
Rj273	net19#2	net19#4	86.068787	$poly	$W=1e-07
Rj274	Ck#9	Ck#10	3.319373	$poly	$W=2e-07
Rj275	Ck#10	Ck#11	128.243378	$poly	$W=1e-07
Rj276	Ck#10	Ck#12	32.068787	$poly	$W=1e-07
Rj277	I0/net1	I0/net1#2	39.068787	$poly	$W=1e-07
Rj278	I0/net1#2	I0/net1#3	3.319373	$poly	$W=2e-07
Rj279	I0/net1#2	I0/net1#4	52.068787	$poly	$W=1e-07
Rj280	I14/net1	I14/net1#2	39.068787	$poly	$W=1e-07
Rj281	I14/net1#2	I14/net1#3	3.319373	$poly	$W=2e-07
Rj282	I14/net1#2	I14/net1#4	52.068787	$poly	$W=1e-07
Rj283	net92	net92#2	63.068787	$poly	$W=1e-07
Rj284	net92#2	net92#3	3.319373	$poly	$W=2e-07
Rj285	net92#2	net92#4	86.068787	$poly	$W=1e-07
Rj286	Ck#13	Ck#14	3.319373	$poly	$W=2e-07
Rj287	Ck#14	Ck#15	128.243378	$poly	$W=1e-07
Rj288	Ck#14	Ck#16	32.068787	$poly	$W=1e-07
Rj289	net20#13	net20#14	39.068787	$poly	$W=1e-07
Rj290	net20#14	net20#15	3.319373	$poly	$W=2e-07
Rj291	net20#14	net20#16	52.068787	$poly	$W=1e-07
Rj292	Ck#17	Ck#18	39.068787	$poly	$W=1e-07
Rj293	Ck#18	Ck#19	3.319373	$poly	$W=2e-07
Rj294	Ck#18	Ck#20	52.068787	$poly	$W=1e-07
Rj295	net90	net90#2	39.068787	$poly	$W=1e-07
Rj296	net90#2	net90#3	3.319373	$poly	$W=2e-07
Rj297	net90#2	net90#4	52.068787	$poly	$W=1e-07
Rj298	net16#25	net16#26	39.068787	$poly	$W=1e-07
Rj299	net16#26	net16#27	3.319373	$poly	$W=2e-07
Rj300	net16#26	net16#28	52.068787	$poly	$W=1e-07
Rj301	I20/net1	I20/net1#2	39.068787	$poly	$W=1e-07
Rj302	I20/net1#2	I20/net1#3	3.319373	$poly	$W=2e-07
Rj303	I20/net1#2	I20/net1#4	52.068787	$poly	$W=1e-07
Rj304	net6	net6#2	40.617226	$poly	$W=1e-07
Rj305	net6#2	net6#3	32.452610	$poly	$W=1e-07
Rj306	net6#2	net6#4	90.791801	$poly	$W=1e-07
Rj307	net5	net5#2	3.319373	$poly	$W=2e-07
Rj308	net5#2	net5#3	47.068787	$poly	$W=1e-07
Rj309	net5#2	net5#4	72.068787	$poly	$W=1e-07
Rj310	net20#17	net20#18	206.243347	$poly	$W=1e-07
Rj311	net20#18	net20#19	3.319373	$poly	$W=2e-07
Rj312	net20#18	net20#20	79.068787	$poly	$W=1e-07
Rj313	net90#5	net90#6	206.243347	$poly	$W=1e-07
Rj314	net90#6	net90#7	3.319373	$poly	$W=2e-07
Rj315	net90#6	net90#8	79.068787	$poly	$W=1e-07
Rj316	Ck#21	Ck#22	73.068787	$poly	$W=1e-07
Rj317	Ck#22	Ck#23	192.243362	$poly	$W=1e-07
Rj318	Ck#22	Ck#24	3.319373	$poly	$W=2e-07
Rj319	net16#29	net16#30	73.068787	$poly	$W=1e-07
Rj320	net16#30	net16#31	192.243362	$poly	$W=1e-07
Rj321	net16#30	net16#32	3.319373	$poly	$W=2e-07
Rj322	I5/net1	I5/net1#2	39.068787	$poly	$W=1e-07
Rj323	I5/net1#2	I5/net1#3	3.319373	$poly	$W=2e-07
Rj324	I5/net1#2	I5/net1#4	52.068787	$poly	$W=1e-07
Rj325	I32/net2	I32/net2#2	190.243362	$poly	$W=1e-07
Rj326	I32/net2#2	I32/net2#3	73.068787	$poly	$W=1e-07
Rj327	I32/net2#2	I32/net2#4	3.319373	$poly	$W=2e-07
Rj328	I31/net2	I31/net2#2	190.243362	$poly	$W=1e-07
Rj329	I31/net2#2	I31/net2#3	73.068787	$poly	$W=1e-07
Rj330	I31/net2#2	I31/net2#4	3.319373	$poly	$W=2e-07
Rj331	I32/net1	I32/net1#2	3.319373	$poly	$W=2e-07
Rj332	I32/net1#2	I32/net1#3	202.243378	$poly	$W=1e-07
Rj333	I32/net1#2	I32/net1#4	81.068787	$poly	$W=1e-07
Rj334	I31/net1	I31/net1#2	3.319373	$poly	$W=2e-07
Rj335	I31/net1#2	I31/net1#3	202.243378	$poly	$W=1e-07
Rj336	I31/net1#2	I31/net1#4	81.068787	$poly	$W=1e-07
Rj337	net66	net66#2	40.617226	$poly	$W=1e-07
Rj338	net66#2	net66#3	32.452610	$poly	$W=1e-07
Rj339	net66#2	net66#4	90.791801	$poly	$W=1e-07
Rj340	net63	net63#2	3.319373	$poly	$W=2e-07
Rj341	net63#2	net63#3	47.068787	$poly	$W=1e-07
Rj342	net63#2	net63#4	72.068787	$poly	$W=1e-07
Rj343	net75	net75#2	40.617226	$poly	$W=1e-07
Rj344	net75#2	net75#3	32.452610	$poly	$W=1e-07
Rj345	net75#2	net75#4	90.791801	$poly	$W=1e-07
Rj346	net74	net74#2	3.319373	$poly	$W=2e-07
Rj347	net74#2	net74#3	47.068787	$poly	$W=1e-07
Rj348	net74#2	net74#4	72.068787	$poly	$W=1e-07
Rj349	I15/net1	I15/net1#2	39.068787	$poly	$W=1e-07
Rj350	I15/net1#2	I15/net1#3	3.319373	$poly	$W=2e-07
Rj351	I15/net1#2	I15/net1#4	52.068787	$poly	$W=1e-07
Rj352	I19/net1	I19/net1#2	39.068787	$poly	$W=1e-07
Rj353	I19/net1#2	I19/net1#3	3.319373	$poly	$W=2e-07
Rj354	I19/net1#2	I19/net1#4	52.068787	$poly	$W=1e-07
Rj355	net18#17	net18#18	39.068787	$poly	$W=1e-07
Rj356	net18#18	net18#19	3.319373	$poly	$W=2e-07
Rj357	net18#18	net18#20	52.068787	$poly	$W=1e-07
Rj358	net32	net32#2	39.068787	$poly	$W=1e-07
Rj359	net32#2	net32#3	3.319373	$poly	$W=2e-07
Rj360	net32#2	net32#4	52.068787	$poly	$W=1e-07
Rj361	net17#25	net17#26	39.068787	$poly	$W=1e-07
Rj362	net17#26	net17#27	3.319373	$poly	$W=2e-07
Rj363	net17#26	net17#28	52.068787	$poly	$W=1e-07
Rj364	net73	net73#2	39.068787	$poly	$W=1e-07
Rj365	net73#2	net73#3	3.319373	$poly	$W=2e-07
Rj366	net73#2	net73#4	52.068787	$poly	$W=1e-07
Rj367	net18#21	net18#22	206.243347	$poly	$W=1e-07
Rj368	net18#22	net18#23	3.319373	$poly	$W=2e-07
Rj369	net18#22	net18#24	79.068787	$poly	$W=1e-07
Rj370	net32#5	net32#6	73.068787	$poly	$W=1e-07
Rj371	net32#6	net32#7	192.243362	$poly	$W=1e-07
Rj372	net32#6	net32#8	3.319373	$poly	$W=2e-07
Rj373	I9/net2	I9/net2#2	190.243362	$poly	$W=1e-07
Rj374	I9/net2#2	I9/net2#3	73.068787	$poly	$W=1e-07
Rj375	I9/net2#2	I9/net2#4	3.319373	$poly	$W=2e-07
Rj376	net17#29	net17#30	206.243347	$poly	$W=1e-07
Rj377	net17#30	net17#31	3.319373	$poly	$W=2e-07
Rj378	net17#30	net17#32	79.068787	$poly	$W=1e-07
Rj379	net73#5	net73#6	73.068787	$poly	$W=1e-07
Rj380	net73#6	net73#7	192.243362	$poly	$W=1e-07
Rj381	net73#6	net73#8	3.319373	$poly	$W=2e-07
Rj382	I9/net1	I9/net1#2	3.319373	$poly	$W=2e-07
Rj383	I9/net1#2	I9/net1#3	202.243378	$poly	$W=1e-07
Rj384	I9/net1#2	I9/net1#4	81.068787	$poly	$W=1e-07
Rj385	I18/net2	I18/net2#2	190.243362	$poly	$W=1e-07
Rj386	I18/net2#2	I18/net2#3	73.068787	$poly	$W=1e-07
Rj387	I18/net2#2	I18/net2#4	3.319373	$poly	$W=2e-07
Rj388	I18/net1	I18/net1#2	3.319373	$poly	$W=2e-07
Rj389	I18/net1#2	I18/net1#3	202.243378	$poly	$W=1e-07
Rj390	I18/net1#2	I18/net1#4	81.068787	$poly	$W=1e-07
Ri1	Yk1	Yk1#13	0.299828	$mt1	$W=1.2e-07
Ri2	Yk	Yk#13	0.579828	$mt1	$W=1.2e-07
Ri3	Yk3	Yk3#13	0.597715	$mt1	$W=1.2e-07
Ri4	GND#2	GND#3	0.140000	$mt1	$W=1.2e-07
Ri5	GND#3	GND#4	0.093333	$mt1	$W=1.8e-07
Ri6	GND#3	GND#5	0.382243	$mt1	$W=1.2e-07
Ri7	GND#3	GND#7	0.428910	$mt1	$W=1.2e-07
Ri9	GND#5	GND#9	0.697715	$mt1	$W=1.2e-07
Ri10	GND#1	GND#2	15.000000	$mt1	$W=1.2e-07
Ri11	GND#1	GND#4	15.000000	$mt1	$W=1.2e-07
Ri12	GND#6	GND#7	7.500000	$mt1	$W=1.2e-07
Ri13	VDD#2	VDD#3	0.140000	$mt1	$W=1.2e-07
Ri14	VDD#3	VDD#4	0.093333	$mt1	$W=1.8e-07
Ri15	VDD#3	VDD#5	0.315576	$mt1	$W=1.2e-07
Ri16	VDD#3	VDD#7	0.595576	$mt1	$W=1.2e-07
Ri18	VDD#5	VDD#9	0.977715	$mt1	$W=1.2e-07
Ri19	VDD#1	VDD#2	15.000000	$mt1	$W=1.2e-07
Ri20	VDD#1	VDD#4	15.000000	$mt1	$W=1.2e-07
Ri21	VDD#6	VDD#7	5.000000	$mt1	$W=1.2e-07
Ri22	GND#10	GND#11	0.140000	$mt1	$W=1.2e-07
Ri23	GND#11	GND#12	0.093333	$mt1	$W=1.8e-07
Ri24	GND#11	GND#13	0.382243	$mt1	$W=1.2e-07
Ri25	GND#11	GND#15	0.428910	$mt1	$W=1.2e-07
Ri27	GND#13	GND#17	0.697715	$mt1	$W=1.2e-07
Ri28	GND#1	GND#10	15.000000	$mt1	$W=1.2e-07
Ri29	GND#1	GND#12	15.000000	$mt1	$W=1.2e-07
Ri30	GND#14	GND#15	7.500000	$mt1	$W=1.2e-07
Ri31	Xk2#7	Xk2#14	10.426666	$mt1	$W=1.2e-07
Ri32	Xk2#14	Xk2#15	0.413333	$mt1	$W=1.2e-07
Ri33	Xk2#15	Xk2#16	1.731048	$mt1	$W=1.2e-07
Ri34	VDD#11	VDD#12	0.140000	$mt1	$W=1.2e-07
Ri35	VDD#12	VDD#13	0.093333	$mt1	$W=1.8e-07
Ri36	VDD#12	VDD#14	0.315576	$mt1	$W=1.2e-07
Ri37	VDD#12	VDD#16	0.595576	$mt1	$W=1.2e-07
Ri39	VDD#14	VDD#18	0.977715	$mt1	$W=1.2e-07
Ri40	VDD#10	VDD#11	15.000000	$mt1	$W=1.2e-07
Ri41	VDD#10	VDD#13	15.000000	$mt1	$W=1.2e-07
Ri42	VDD#15	VDD#16	5.000000	$mt1	$W=1.2e-07
Ri43	GND#18	GND#19	0.140000	$mt1	$W=1.2e-07
Ri44	GND#19	GND#20	0.093333	$mt1	$W=1.8e-07
Ri45	GND#19	GND#21	0.382243	$mt1	$W=1.2e-07
Ri46	GND#19	GND#23	0.428910	$mt1	$W=1.2e-07
Ri48	GND#21	GND#25	0.697715	$mt1	$W=1.2e-07
Ri49	GND#1	GND#18	15.000000	$mt1	$W=1.2e-07
Ri50	GND#1	GND#20	15.000000	$mt1	$W=1.2e-07
Ri51	GND#22	GND#23	7.500000	$mt1	$W=1.2e-07
Ri53	net16#34	net16#36	0.933161	$mt1	$W=1.2e-07
Ri54	net16#33	net16#34	2.142857	$mt1	$W=1.2e-07
Ri55	Xk1#11	Xk1#14	10.486667	$mt1	$W=1.2e-07
Ri56	Xk1#14	Xk1#15	3.524698	$mt1	$W=1.2e-07
Ri57	Xk1#15	Xk1#16	3.088303	$mt1	$W=1.2e-07
Ri58	Xk1#16	Xk1#17	11.848303	$mt1	$W=1.2e-07
Ri59	Xk1#17	Xk1#18	0.413333	$mt1	$W=1.2e-07
Ri60	Xk1#18	Xk1#7	10.426666	$mt1	$W=1.2e-07
Ri61	Xk1#15	Xk1#3	10.673333	$mt1	$W=1.2e-07
Ri62	Xk1#16	Xk1	0.373939	$mt1	$W=1.2e-07
Ri63	VDD#20	VDD#21	0.140000	$mt1	$W=1.2e-07
Ri64	VDD#21	VDD#22	0.093333	$mt1	$W=1.8e-07
Ri65	VDD#21	VDD#23	0.315576	$mt1	$W=1.2e-07
Ri66	VDD#21	VDD#25	0.595576	$mt1	$W=1.2e-07
Ri68	VDD#23	VDD#27	0.977715	$mt1	$W=1.2e-07
Ri69	VDD#19	VDD#20	15.000000	$mt1	$W=1.2e-07
Ri70	VDD#19	VDD#22	15.000000	$mt1	$W=1.2e-07
Ri71	VDD#24	VDD#25	5.000000	$mt1	$W=1.2e-07
Ri73	net20#22	net20#24	0.933161	$mt1	$W=1.2e-07
Ri74	net20#21	net20#22	2.142857	$mt1	$W=1.2e-07
Ri75	Xk#11	Xk#14	10.486667	$mt1	$W=1.2e-07
Ri76	Xk#14	Xk#15	3.524698	$mt1	$W=1.2e-07
Ri77	Xk#15	Xk#16	3.641636	$mt1	$W=1.2e-07
Ri78	Xk#16	Xk#17	9.748303	$mt1	$W=1.2e-07
Ri79	Xk#17	Xk#18	0.413333	$mt1	$W=1.2e-07
Ri80	Xk#18	Xk#7	10.426666	$mt1	$W=1.2e-07
Ri81	Xk#15	Xk#3	10.673333	$mt1	$W=1.2e-07
Ri82	Xk#16	Xk	0.273939	$mt1	$W=1.2e-07
Ri83	Yk#14	Yk#5	10.386666	$mt1	$W=1.2e-07
Ri84	Yk#14	Yk#16	1.002414	$mt1	$W=1.2e-07
Ri86	net16#38	net16#40	2.333161	$mt1	$W=1.2e-07
Ri87	net16#37	net16#38	2.142857	$mt1	$W=1.2e-07
Ri88	Yk2#13	Yk2#5	10.386666	$mt1	$W=1.2e-07
Ri89	Yk2#13	Yk2#15	1.002414	$mt1	$W=1.2e-07
Ri91	net17#34	net17#36	0.933161	$mt1	$W=1.2e-07
Ri92	net17#33	net17#34	2.142857	$mt1	$W=1.2e-07
Ri93	Xk2#11	Xk2#18	10.486667	$mt1	$W=1.2e-07
Ri94	Xk2#18	Xk2#19	3.524698	$mt1	$W=1.2e-07
Ri95	Xk2#19	Xk2#20	6.138638	$mt1	$W=1.2e-07
Ri96	Xk2#20	Xk2	0.190271	$mt1	$W=1.2e-07
Ri97	Xk2#19	Xk2#3	10.673333	$mt1	$W=1.2e-07
Ri98	Xk2#20	Xk2#22	0.236766	$mt1	$W=1.2e-07
Ri99	Yk1#12	Yk1#15	11.360000	$mt1	$W=1.2e-07
Ri100	Yk1#15	Yk1#16	3.804698	$mt1	$W=1.2e-07
Ri101	Yk1#16	Yk1#17	8.441327	$mt1	$W=1.2e-07
Ri102	Yk1#16	Yk1#3	10.673333	$mt1	$W=1.2e-07
Ri103	Yk1#17	Yk1#19	2.005935	$mt1	$W=1.2e-07
Ri104	Yk1#19	Yk1#20	0.849080	$mt1	$W=1.2e-07
Ri106	net20#26	net20#28	2.333161	$mt1	$W=1.2e-07
Ri107	net20#25	net20#26	2.142857	$mt1	$W=1.2e-07
Ri108	Yk1#21	Yk1#5	10.386666	$mt1	$W=1.2e-07
Ri109	Yk1#21	Yk1#23	1.002414	$mt1	$W=1.2e-07
Ri110	I29/net1#3	I29/net1#6	10.406667	$mt1	$W=1.2e-07
Ri111	I29/net1#6	I29/net1#7	0.486667	$mt1	$W=1.2e-07
Ri112	I29/net1#7	I29/net1#8	0.607273	$mt1	$W=1.2e-07
Ri113	I29/net1#8	I29/net1#10	1.119668	$mt1	$W=1.2e-07
Ri115	I29/net1#8	I29/net1#13	0.756938	$mt1	$W=1.2e-07
Ri117	I29/net1#9	I29/net1#10	5.000000	$mt1	$W=1.2e-07
Ri118	I29/net1#12	I29/net1#13	5.000000	$mt1	$W=1.2e-07
Ri119	Yk#12	Yk#18	11.360000	$mt1	$W=1.2e-07
Ri120	Yk#18	Yk#19	3.804698	$mt1	$W=1.2e-07
Ri121	Yk#19	Yk#20	6.928786	$mt1	$W=1.2e-07
Ri122	Yk#20	Yk#21	0.339475	$mt1	$W=1.2e-07
Ri123	Yk#19	Yk#3	10.673333	$mt1	$W=1.2e-07
Ri124	Yk#20	Yk#23	1.106314	$mt1	$W=1.2e-07
Ri125	Yk#23	Yk#24	0.849080	$mt1	$W=1.2e-07
Ri127	net17#38	net17#40	2.333161	$mt1	$W=1.2e-07
Ri128	net17#37	net17#38	2.142857	$mt1	$W=1.2e-07
Ri129	I16/net1#3	I16/net1#6	10.406667	$mt1	$W=1.2e-07
Ri130	I16/net1#6	I16/net1#7	0.486667	$mt1	$W=1.2e-07
Ri131	I16/net1#7	I16/net1#8	0.607273	$mt1	$W=1.2e-07
Ri132	I16/net1#8	I16/net1#10	1.119668	$mt1	$W=1.2e-07
Ri134	I16/net1#8	I16/net1#13	0.756938	$mt1	$W=1.2e-07
Ri136	I16/net1#9	I16/net1#10	5.000000	$mt1	$W=1.2e-07
Ri137	I16/net1#12	I16/net1#13	5.000000	$mt1	$W=1.2e-07
Ri139	net16#42	net16#44	0.951193	$mt1	$W=1.2e-07
Ri140	net16#44	net16#46	0.951193	$mt1	$W=1.2e-07
Ri142	net16#41	net16#42	5.000000	$mt1	$W=1.2e-07
Ri143	net16#45	net16#46	5.000000	$mt1	$W=1.2e-07
Ri144	Yk2#12	Yk2#17	11.360000	$mt1	$W=1.2e-07
Ri145	Yk2#17	Yk2#18	3.804698	$mt1	$W=1.2e-07
Ri146	Yk2#18	Yk2#19	7.185304	$mt1	$W=1.2e-07
Ri147	Yk2#19	Yk2	1.276938	$mt1	$W=1.2e-07
Ri148	Yk2#18	Yk2#3	10.673333	$mt1	$W=1.2e-07
Ri149	Yk2#19	Yk2#21	0.916938	$mt1	$W=1.2e-07
Ri150	Yk2#21	Yk2#22	0.849080	$mt1	$W=1.2e-07
Ri151	I26/net1#3	I26/net1#6	10.406667	$mt1	$W=1.2e-07
Ri152	I26/net1#6	I26/net1#7	0.486667	$mt1	$W=1.2e-07
Ri153	I26/net1#7	I26/net1#8	0.607273	$mt1	$W=1.2e-07
Ri154	I26/net1#8	I26/net1#10	1.119668	$mt1	$W=1.2e-07
Ri156	I26/net1#8	I26/net1#13	0.756938	$mt1	$W=1.2e-07
Ri158	I26/net1#9	I26/net1#10	5.000000	$mt1	$W=1.2e-07
Ri159	I26/net1#12	I26/net1#13	5.000000	$mt1	$W=1.2e-07
Ri161	net20#30	net20#32	0.951193	$mt1	$W=1.2e-07
Ri162	net20#32	net20#34	0.951193	$mt1	$W=1.2e-07
Ri164	net20#29	net20#30	5.000000	$mt1	$W=1.2e-07
Ri165	net20#33	net20#34	5.000000	$mt1	$W=1.2e-07
Ri167	I27/I0/net7#2	I27/I0/net7#5	3.916063	$mt1	$W=1.2e-07
Ri169	I27/I0/net7	I27/I0/net7#2	2.142857	$mt1	$W=1.2e-07
Ri170	I27/I0/net7#4	I27/I0/net7#5	2.142857	$mt1	$W=1.2e-07
Ri171	GND#26	GND#27	0.140000	$mt1	$W=1.2e-07
Ri172	GND#27	GND#28	0.093333	$mt1	$W=1.8e-07
Ri173	GND#27	GND#29	0.382243	$mt1	$W=1.2e-07
Ri174	GND#27	GND#31	0.428910	$mt1	$W=1.2e-07
Ri176	GND#29	GND#33	0.633333	$mt1	$W=1.2e-07
Ri177	GND#33	GND#34	0.733050	$mt1	$W=1.2e-07
Ri178	GND#33	GND#35	0.301840	$mt1	$W=1.2e-07
Ri180	GND#35	GND#38	0.615174	$mt1	$W=1.2e-07
Ri182	GND#1	GND#26	15.000000	$mt1	$W=1.2e-07
Ri183	GND#1	GND#28	15.000000	$mt1	$W=1.2e-07
Ri184	GND#30	GND#31	7.500000	$mt1	$W=1.2e-07
Ri185	GND#1	GND#35	7.500000	$mt1	$W=1.2e-07
Ri186	GND#37	GND#38	5.000000	$mt1	$W=1.2e-07
Ri187	GND#40	GND#41	0.140000	$mt1	$W=1.2e-07
Ri188	GND#41	GND#42	0.093333	$mt1	$W=1.8e-07
Ri189	GND#41	GND#43	0.382243	$mt1	$W=1.2e-07
Ri190	GND#41	GND#45	0.428910	$mt1	$W=1.2e-07
Ri192	GND#43	GND#47	0.697715	$mt1	$W=1.2e-07
Ri193	GND#1	GND#40	15.000000	$mt1	$W=1.2e-07
Ri194	GND#1	GND#42	15.000000	$mt1	$W=1.2e-07
Ri195	GND#44	GND#45	7.500000	$mt1	$W=1.2e-07
Ri197	net17#42	net17#44	0.951193	$mt1	$W=1.2e-07
Ri198	net17#44	net17#46	0.951193	$mt1	$W=1.2e-07
Ri200	net17#41	net17#42	5.000000	$mt1	$W=1.2e-07
Ri201	net17#45	net17#46	5.000000	$mt1	$W=1.2e-07
Ri203	I28/I0/net7#2	I28/I0/net7#5	3.916063	$mt1	$W=1.2e-07
Ri205	I28/I0/net7	I28/I0/net7#2	2.142857	$mt1	$W=1.2e-07
Ri206	I28/I0/net7#4	I28/I0/net7#5	2.142857	$mt1	$W=1.2e-07
Ri207	VDD#29	VDD#30	0.140000	$mt1	$W=1.2e-07
Ri208	VDD#30	VDD#31	0.093333	$mt1	$W=1.8e-07
Ri209	VDD#30	VDD#32	0.315576	$mt1	$W=1.2e-07
Ri210	VDD#30	VDD#34	0.595576	$mt1	$W=1.2e-07
Ri212	VDD#32	VDD#36	0.977715	$mt1	$W=1.2e-07
Ri213	VDD#28	VDD#29	15.000000	$mt1	$W=1.2e-07
Ri214	VDD#28	VDD#31	15.000000	$mt1	$W=1.2e-07
Ri215	VDD#33	VDD#34	5.000000	$mt1	$W=1.2e-07
Ri216	GND#48	GND#49	0.140000	$mt1	$W=1.2e-07
Ri217	GND#49	GND#50	0.093333	$mt1	$W=1.8e-07
Ri218	GND#49	GND#51	0.382243	$mt1	$W=1.2e-07
Ri219	GND#49	GND#53	0.428910	$mt1	$W=1.2e-07
Ri221	GND#51	GND#55	0.633333	$mt1	$W=1.2e-07
Ri222	GND#55	GND#56	1.986494	$mt1	$W=1.2e-07
Ri223	GND#55	GND#57	0.301840	$mt1	$W=1.2e-07
Ri225	GND#57	GND#60	0.615174	$mt1	$W=1.2e-07
Ri227	GND#1	GND#48	15.000000	$mt1	$W=1.2e-07
Ri228	GND#1	GND#50	15.000000	$mt1	$W=1.2e-07
Ri229	GND#52	GND#53	7.500000	$mt1	$W=1.2e-07
Ri230	GND#1	GND#57	7.500000	$mt1	$W=1.2e-07
Ri231	GND#59	GND#60	5.000000	$mt1	$W=1.2e-07
Ri233	I17/I0/net7#2	I17/I0/net7#5	3.916063	$mt1	$W=1.2e-07
Ri235	I17/I0/net7	I17/I0/net7#2	2.142857	$mt1	$W=1.2e-07
Ri236	I17/I0/net7#4	I17/I0/net7#5	2.142857	$mt1	$W=1.2e-07
Ri238	VDD#38	VDD#40	1.338032	$mt1	$W=1.2e-07
Ri240	VDD#40	VDD#44	0.933333	$mt1	$W=1.2e-07
Ri244	VDD#40	VDD#49	0.293333	$mt1	$W=1.2e-07
Ri245	VDD#49	VDD#50	3.299828	$mt1	$W=1.2e-07
Ri246	VDD#37	VDD#38	2.142857	$mt1	$W=1.2e-07
Ri248	VDD#43	VDD#44	2.142857	$mt1	$W=1.2e-07
Ri251	GND#63	GND#65	0.674837	$mt1	$W=1.2e-07
Ri252	GND#65	GND#66	0.341504	$mt1	$W=1.2e-07
Ri253	GND#65	GND#67	0.101158	$mt1	$W=3.8e-07
Ri255	GND#66	GND#69	2.082056	$mt1	$W=1.2e-07
Ri256	GND#62	GND#63	5.000000	$mt1	$W=1.2e-07
Ri257	GND#1	GND#67	7.500000	$mt1	$W=3.8e-07
Ri258	net16#48	net16#49	0.040000	$mt1	$W=2.6e-07
Ri259	net16#49	net16#50	0.511048	$mt1	$W=1.2e-07
Ri260	I27/net2#5	I27/net2#6	7.078794	$mt1	$W=1.2e-07
Ri261	I27/net2#6	I27/net2#7	0.293939	$mt1	$W=1.2e-07
Ri262	I27/net2#7	I27/net2#9	0.516938	$mt1	$W=1.2e-07
Ri264	I27/net2#5	I27/net2#4	11.480000	$mt1	$W=1.2e-07
Ri265	I27/net2#7	I27/net2#13	0.596938	$mt1	$W=1.2e-07
Ri267	I27/net2#8	I27/net2#9	7.500000	$mt1	$W=1.2e-07
Ri268	I27/net2#12	I27/net2#13	5.000000	$mt1	$W=1.2e-07
Ri270	net18#26	net18#28	0.933161	$mt1	$W=1.2e-07
Ri271	net18#25	net18#26	2.142857	$mt1	$W=1.2e-07
Ri272	Xk3#11	Xk3#14	10.486667	$mt1	$W=1.2e-07
Ri273	Xk3#14	Xk3#15	3.524698	$mt1	$W=1.2e-07
Ri274	Xk3#15	Xk3#16	1.963604	$mt1	$W=1.2e-07
Ri275	Xk3#16	Xk3#17	14.058639	$mt1	$W=1.2e-07
Ri276	Xk3#17	Xk3#18	0.413333	$mt1	$W=1.2e-07
Ri277	Xk3#18	Xk3#7	10.426666	$mt1	$W=1.2e-07
Ri278	Xk3#15	Xk3#3	10.673333	$mt1	$W=1.2e-07
Ri279	Xk3#16	Xk3	2.693001	$mt1	$W=1.2e-07
Ri280	I27/net1#5	I27/net1#6	8.198793	$mt1	$W=1.2e-07
Ri281	I27/net1#6	I27/net1#7	0.293939	$mt1	$W=1.2e-07
Ri282	I27/net1#7	I27/net1#9	0.516938	$mt1	$W=1.2e-07
Ri284	I27/net1#5	I27/net1	10.620000	$mt1	$W=1.2e-07
Ri285	I27/net1#7	I27/net1#13	0.596938	$mt1	$W=1.2e-07
Ri287	I27/net1#8	I27/net1#9	7.500000	$mt1	$W=1.2e-07
Ri288	I27/net1#12	I27/net1#13	5.000000	$mt1	$W=1.2e-07
Ri290	VDD#52	VDD#54	1.338032	$mt1	$W=1.2e-07
Ri292	VDD#54	VDD#58	0.933333	$mt1	$W=1.2e-07
Ri296	VDD#54	VDD#63	0.293333	$mt1	$W=1.2e-07
Ri297	VDD#63	VDD#64	3.299828	$mt1	$W=1.2e-07
Ri298	VDD#51	VDD#52	2.142857	$mt1	$W=1.2e-07
Ri300	VDD#57	VDD#58	2.142857	$mt1	$W=1.2e-07
Ri303	GND#71	GND#73	0.674837	$mt1	$W=1.2e-07
Ri304	GND#73	GND#74	0.341504	$mt1	$W=1.2e-07
Ri305	GND#73	GND#75	0.101158	$mt1	$W=3.8e-07
Ri307	GND#74	GND#77	2.082056	$mt1	$W=1.2e-07
Ri308	GND#70	GND#71	5.000000	$mt1	$W=1.2e-07
Ri309	GND#1	GND#75	7.500000	$mt1	$W=3.8e-07
Ri310	net20#36	net20#37	0.040000	$mt1	$W=2.6e-07
Ri311	net20#37	net20#38	0.511048	$mt1	$W=1.2e-07
Ri312	I28/net2#5	I28/net2#6	7.078794	$mt1	$W=1.2e-07
Ri313	I28/net2#6	I28/net2#7	0.293939	$mt1	$W=1.2e-07
Ri314	I28/net2#7	I28/net2#9	0.516938	$mt1	$W=1.2e-07
Ri316	I28/net2#5	I28/net2#4	11.480000	$mt1	$W=1.2e-07
Ri317	I28/net2#7	I28/net2#13	0.596938	$mt1	$W=1.2e-07
Ri319	I28/net2#8	I28/net2#9	7.500000	$mt1	$W=1.2e-07
Ri320	I28/net2#12	I28/net2#13	5.000000	$mt1	$W=1.2e-07
Ri321	I28/net1#5	I28/net1#6	8.198793	$mt1	$W=1.2e-07
Ri322	I28/net1#6	I28/net1#7	0.293939	$mt1	$W=1.2e-07
Ri323	I28/net1#7	I28/net1#9	0.516938	$mt1	$W=1.2e-07
Ri325	I28/net1#5	I28/net1	10.620000	$mt1	$W=1.2e-07
Ri326	I28/net1#7	I28/net1#13	0.596938	$mt1	$W=1.2e-07
Ri328	I28/net1#8	I28/net1#9	7.500000	$mt1	$W=1.2e-07
Ri329	I28/net1#12	I28/net1#13	5.000000	$mt1	$W=1.2e-07
Ri331	VDD#66	VDD#68	1.338032	$mt1	$W=1.2e-07
Ri333	VDD#68	VDD#72	0.933333	$mt1	$W=1.2e-07
Ri337	VDD#68	VDD#77	0.293333	$mt1	$W=1.2e-07
Ri338	VDD#77	VDD#78	3.299828	$mt1	$W=1.2e-07
Ri339	VDD#65	VDD#66	2.142857	$mt1	$W=1.2e-07
Ri341	VDD#71	VDD#72	2.142857	$mt1	$W=1.2e-07
Ri344	GND#79	GND#81	0.674837	$mt1	$W=1.2e-07
Ri345	GND#81	GND#82	0.341504	$mt1	$W=1.2e-07
Ri346	GND#81	GND#83	0.101158	$mt1	$W=3.8e-07
Ri348	GND#82	GND#85	2.082056	$mt1	$W=1.2e-07
Ri349	GND#78	GND#79	5.000000	$mt1	$W=1.2e-07
Ri350	GND#1	GND#83	7.500000	$mt1	$W=3.8e-07
Ri352	net18#30	net18#32	2.333161	$mt1	$W=1.2e-07
Ri353	net18#29	net18#30	2.142857	$mt1	$W=1.2e-07
Ri354	net17#48	net17#49	0.040000	$mt1	$W=2.6e-07
Ri355	net17#49	net17#50	0.511048	$mt1	$W=1.2e-07
Ri356	I17/net2#5	I17/net2#6	7.078794	$mt1	$W=1.2e-07
Ri357	I17/net2#6	I17/net2#7	0.293939	$mt1	$W=1.2e-07
Ri358	I17/net2#7	I17/net2#9	0.516938	$mt1	$W=1.2e-07
Ri360	I17/net2#5	I17/net2#4	11.480000	$mt1	$W=1.2e-07
Ri361	I17/net2#7	I17/net2#13	0.596938	$mt1	$W=1.2e-07
Ri363	I17/net2#8	I17/net2#9	7.500000	$mt1	$W=1.2e-07
Ri364	I17/net2#12	I17/net2#13	5.000000	$mt1	$W=1.2e-07
Ri365	Yk3#14	Yk3#5	10.386666	$mt1	$W=1.2e-07
Ri366	Yk3#14	Yk3#16	1.002414	$mt1	$W=1.2e-07
Ri367	I17/net1#5	I17/net1#6	8.198793	$mt1	$W=1.2e-07
Ri368	I17/net1#6	I17/net1#7	0.293939	$mt1	$W=1.2e-07
Ri369	I17/net1#7	I17/net1#9	0.516938	$mt1	$W=1.2e-07
Ri371	I17/net1#5	I17/net1	10.620000	$mt1	$W=1.2e-07
Ri372	I17/net1#7	I17/net1#13	0.596938	$mt1	$W=1.2e-07
Ri374	I17/net1#8	I17/net1#9	7.500000	$mt1	$W=1.2e-07
Ri375	I17/net1#12	I17/net1#13	5.000000	$mt1	$W=1.2e-07
Ri376	Yk3#12	Yk3#18	11.360000	$mt1	$W=1.2e-07
Ri377	Yk3#18	Yk3#19	3.804698	$mt1	$W=1.2e-07
Ri378	Yk3#19	Yk3#20	5.431193	$mt1	$W=1.2e-07
Ri379	Yk3#20	Yk3#21	4.884526	$mt1	$W=1.2e-07
Ri380	Yk3#21	Yk3#22	0.849080	$mt1	$W=1.2e-07
Ri381	Yk3#19	Yk3#3	10.673333	$mt1	$W=1.2e-07
Ri382	GND#86	GND#87	0.140000	$mt1	$W=1.2e-07
Ri383	GND#87	GND#88	0.093333	$mt1	$W=1.8e-07
Ri384	GND#87	GND#89	0.382243	$mt1	$W=1.2e-07
Ri385	GND#87	GND#91	0.428910	$mt1	$W=1.2e-07
Ri387	GND#89	GND#93	0.584382	$mt1	$W=1.2e-07
Ri388	GND#89	GND#94	0.397715	$mt1	$W=1.2e-07
Ri389	GND#1	GND#86	15.000000	$mt1	$W=1.2e-07
Ri390	GND#1	GND#88	15.000000	$mt1	$W=1.2e-07
Ri391	GND#90	GND#91	7.500000	$mt1	$W=1.2e-07
Ri392	VDD#80	VDD#81	0.140000	$mt1	$W=1.2e-07
Ri393	VDD#81	VDD#82	0.093333	$mt1	$W=1.8e-07
Ri394	VDD#81	VDD#83	0.315576	$mt1	$W=1.2e-07
Ri395	VDD#81	VDD#85	0.595576	$mt1	$W=1.2e-07
Ri397	VDD#83	VDD#87	0.293333	$mt1	$W=1.2e-07
Ri398	VDD#87	VDD#88	0.448910	$mt1	$W=1.2e-07
Ri399	VDD#88	VDD#90	0.595576	$mt1	$W=1.2e-07
Ri401	VDD#87	VDD#92	3.293161	$mt1	$W=1.2e-07
Ri402	VDD#87	VDD#93	0.858462	$mt1	$W=2.6e-07
Ri404	VDD#88	VDD#97	1.004698	$mt1	$W=1.2e-07
Ri406	VDD#79	VDD#80	15.000000	$mt1	$W=1.2e-07
Ri407	VDD#79	VDD#82	15.000000	$mt1	$W=1.2e-07
Ri408	VDD#84	VDD#85	5.000000	$mt1	$W=1.2e-07
Ri409	VDD#89	VDD#90	5.000000	$mt1	$W=1.2e-07
Ri411	VDD#96	VDD#97	5.000000	$mt1	$W=1.2e-07
Ri412	I7/net1#3	I7/net1#6	10.406667	$mt1	$W=1.2e-07
Ri413	I7/net1#6	I7/net1#7	0.486667	$mt1	$W=1.2e-07
Ri414	I7/net1#7	I7/net1#8	0.607273	$mt1	$W=1.2e-07
Ri415	I7/net1#8	I7/net1#10	1.119668	$mt1	$W=1.2e-07
Ri417	I7/net1#8	I7/net1#13	0.756938	$mt1	$W=1.2e-07
Ri419	I7/net1#9	I7/net1#10	5.000000	$mt1	$W=1.2e-07
Ri420	I7/net1#12	I7/net1#13	5.000000	$mt1	$W=1.2e-07
Ri422	net18#34	net18#36	0.951193	$mt1	$W=1.2e-07
Ri423	net18#36	net18#38	0.951193	$mt1	$W=1.2e-07
Ri425	net18#33	net18#34	5.000000	$mt1	$W=1.2e-07
Ri426	net18#37	net18#38	5.000000	$mt1	$W=1.2e-07
Ri427	GND#95	GND#96	0.140000	$mt1	$W=1.2e-07
Ri428	GND#96	GND#97	0.093333	$mt1	$W=1.8e-07
Ri429	GND#96	GND#98	0.382243	$mt1	$W=1.2e-07
Ri430	GND#96	GND#100	0.428910	$mt1	$W=1.2e-07
Ri432	GND#98	GND#102	0.584382	$mt1	$W=1.2e-07
Ri433	GND#98	GND#103	2.143328	$mt1	$W=1.2e-07
Ri434	GND#1	GND#95	15.000000	$mt1	$W=1.2e-07
Ri435	GND#1	GND#97	15.000000	$mt1	$W=1.2e-07
Ri436	GND#99	GND#100	7.500000	$mt1	$W=1.2e-07
Ri438	I8/I0/net7#2	I8/I0/net7#5	3.916063	$mt1	$W=1.2e-07
Ri440	I8/I0/net7	I8/I0/net7#2	2.142857	$mt1	$W=1.2e-07
Ri441	I8/I0/net7#4	I8/I0/net7#5	2.142857	$mt1	$W=1.2e-07
Ri442	GND#104	GND#105	0.140000	$mt1	$W=1.2e-07
Ri443	GND#105	GND#106	0.093333	$mt1	$W=1.8e-07
Ri444	GND#105	GND#107	0.382243	$mt1	$W=1.2e-07
Ri445	GND#105	GND#109	0.428910	$mt1	$W=1.2e-07
Ri447	GND#107	GND#111	0.633333	$mt1	$W=1.2e-07
Ri448	GND#111	GND#112	4.313161	$mt1	$W=1.2e-07
Ri449	GND#111	GND#113	0.301840	$mt1	$W=1.2e-07
Ri451	GND#113	GND#116	0.615174	$mt1	$W=1.2e-07
Ri453	GND#1	GND#104	15.000000	$mt1	$W=1.2e-07
Ri454	GND#1	GND#106	15.000000	$mt1	$W=1.2e-07
Ri455	GND#108	GND#109	7.500000	$mt1	$W=1.2e-07
Ri456	GND#1	GND#113	7.500000	$mt1	$W=1.2e-07
Ri457	GND#115	GND#116	5.000000	$mt1	$W=1.2e-07
Ri458	VDD#100	VDD#101	0.140000	$mt1	$W=1.2e-07
Ri459	VDD#101	VDD#102	0.093333	$mt1	$W=1.8e-07
Ri460	VDD#101	VDD#103	0.315576	$mt1	$W=1.2e-07
Ri461	VDD#101	VDD#105	0.595576	$mt1	$W=1.2e-07
Ri463	VDD#103	VDD#107	0.293333	$mt1	$W=1.2e-07
Ri464	VDD#107	VDD#108	0.448910	$mt1	$W=1.2e-07
Ri465	VDD#108	VDD#110	0.595576	$mt1	$W=1.2e-07
Ri467	VDD#107	VDD#112	2.111048	$mt1	$W=1.2e-07
Ri469	VDD#108	VDD#116	1.004698	$mt1	$W=1.2e-07
Ri471	VDD#99	VDD#100	15.000000	$mt1	$W=1.2e-07
Ri472	VDD#99	VDD#102	15.000000	$mt1	$W=1.2e-07
Ri473	VDD#104	VDD#105	5.000000	$mt1	$W=1.2e-07
Ri474	VDD#109	VDD#110	5.000000	$mt1	$W=1.2e-07
Ri476	VDD#115	VDD#116	5.000000	$mt1	$W=1.2e-07
Ri477	GND#118	GND#119	0.140000	$mt1	$W=1.2e-07
Ri478	GND#119	GND#120	0.093333	$mt1	$W=1.8e-07
Ri479	GND#119	GND#121	0.382243	$mt1	$W=1.2e-07
Ri480	GND#119	GND#123	0.428910	$mt1	$W=1.2e-07
Ri482	GND#121	GND#125	0.584382	$mt1	$W=1.2e-07
Ri483	GND#121	GND#126	3.549994	$mt1	$W=1.2e-07
Ri484	GND#1	GND#118	15.000000	$mt1	$W=1.2e-07
Ri485	GND#1	GND#120	15.000000	$mt1	$W=1.2e-07
Ri486	GND#122	GND#123	7.500000	$mt1	$W=1.2e-07
Ri487	GND#127	GND#128	0.140000	$mt1	$W=1.2e-07
Ri488	GND#128	GND#129	0.093333	$mt1	$W=1.8e-07
Ri489	GND#128	GND#130	0.382243	$mt1	$W=1.2e-07
Ri490	GND#128	GND#132	0.428910	$mt1	$W=1.2e-07
Ri492	GND#130	GND#134	0.633333	$mt1	$W=1.2e-07
Ri493	GND#134	GND#135	2.059828	$mt1	$W=1.2e-07
Ri494	GND#134	GND#136	0.301840	$mt1	$W=1.2e-07
Ri496	GND#136	GND#139	0.615174	$mt1	$W=1.2e-07
Ri498	GND#1	GND#127	15.000000	$mt1	$W=1.2e-07
Ri499	GND#1	GND#129	15.000000	$mt1	$W=1.2e-07
Ri500	GND#131	GND#132	7.500000	$mt1	$W=1.2e-07
Ri501	GND#1	GND#136	7.500000	$mt1	$W=1.2e-07
Ri502	GND#138	GND#139	5.000000	$mt1	$W=1.2e-07
Ri504	VDD#119	VDD#121	1.338032	$mt1	$W=1.2e-07
Ri506	VDD#121	VDD#125	0.933333	$mt1	$W=1.2e-07
Ri510	VDD#121	VDD#130	0.293333	$mt1	$W=1.2e-07
Ri511	VDD#130	VDD#131	3.299828	$mt1	$W=1.2e-07
Ri512	VDD#118	VDD#119	2.142857	$mt1	$W=1.2e-07
Ri514	VDD#124	VDD#125	2.142857	$mt1	$W=1.2e-07
Ri517	GND#142	GND#144	0.674837	$mt1	$W=1.2e-07
Ri518	GND#144	GND#145	0.341504	$mt1	$W=1.2e-07
Ri519	GND#144	GND#146	0.101158	$mt1	$W=3.8e-07
Ri521	GND#145	GND#148	2.082056	$mt1	$W=1.2e-07
Ri522	GND#141	GND#142	5.000000	$mt1	$W=1.2e-07
Ri523	GND#1	GND#146	7.500000	$mt1	$W=3.8e-07
Ri524	net18#40	net18#41	0.040000	$mt1	$W=2.6e-07
Ri525	net18#41	net18#42	0.511048	$mt1	$W=1.2e-07
Ri526	I8/net2#5	I8/net2#6	7.078794	$mt1	$W=1.2e-07
Ri527	I8/net2#6	I8/net2#7	0.293939	$mt1	$W=1.2e-07
Ri528	I8/net2#7	I8/net2#9	0.516938	$mt1	$W=1.2e-07
Ri530	I8/net2#5	I8/net2#4	11.480000	$mt1	$W=1.2e-07
Ri531	I8/net2#7	I8/net2#13	0.596938	$mt1	$W=1.2e-07
Ri533	I8/net2#8	I8/net2#9	7.500000	$mt1	$W=1.2e-07
Ri534	I8/net2#12	I8/net2#13	5.000000	$mt1	$W=1.2e-07
Ri535	I8/net1#5	I8/net1#6	8.198793	$mt1	$W=1.2e-07
Ri536	I8/net1#6	I8/net1#7	0.293939	$mt1	$W=1.2e-07
Ri537	I8/net1#7	I8/net1#9	0.516938	$mt1	$W=1.2e-07
Ri539	I8/net1#5	I8/net1	10.620000	$mt1	$W=1.2e-07
Ri540	I8/net1#7	I8/net1#13	0.596938	$mt1	$W=1.2e-07
Ri542	I8/net1#8	I8/net1#9	7.500000	$mt1	$W=1.2e-07
Ri543	I8/net1#12	I8/net1#13	5.000000	$mt1	$W=1.2e-07
Ri544	net16#51	net16#52	0.846322	$mt1	$W=1.2e-07
Ri545	VDD#132	VDD#133	0.074667	$mt1	$W=1.5e-07
Ri546	VDD#133	VDD#134	0.315576	$mt1	$W=1.2e-07
Ri548	VDD#134	VDD#135	15.140000	$mt1	$W=1.2e-07
Ri549	VDD#133	VDD#137	0.297715	$mt1	$W=1.2e-07
Ri550	VDD#134	VDD#139	0.595576	$mt1	$W=1.2e-07
Ri552	VDD#133	VDD#141	3.816661	$mt1	$W=1.2e-07
Ri553	VDD#135	VDD#134	15.000000	$mt1	$W=1.8e-07
Ri554	VDD#138	VDD#139	5.000000	$mt1	$W=1.2e-07
Ri555	GND#149	GND#150	0.382243	$mt1	$W=1.2e-07
Ri557	GND#150	GND#1	15.140000	$mt1	$W=1.2e-07
Ri558	GND#149	GND#152	0.584382	$mt1	$W=1.2e-07
Ri559	GND#149	GND#153	0.373145	$mt1	$W=1.2e-07
Ri560	GND#150	GND#155	0.428910	$mt1	$W=1.2e-07
Ri562	GND#1	GND#150	15.000000	$mt1	$W=1.8e-07
Ri563	GND#154	GND#155	7.500000	$mt1	$W=1.2e-07
Ri564	net15#21	net15#22	0.849080	$mt1	$W=1.2e-07
Ri565	net15#22	net15#23	0.430271	$mt1	$W=1.2e-07
Ri566	net15#23	net15#24	1.396765	$mt1	$W=1.2e-07
Ri567	net15#23	net15#25	1.998321	$mt1	$W=1.2e-07
Ri568	VDD#143	VDD#144	0.140000	$mt1	$W=1.2e-07
Ri569	VDD#144	VDD#145	0.093333	$mt1	$W=1.8e-07
Ri570	VDD#144	VDD#146	0.315576	$mt1	$W=1.2e-07
Ri571	VDD#144	VDD#148	0.595576	$mt1	$W=1.2e-07
Ri573	VDD#146	VDD#150	0.297715	$mt1	$W=1.2e-07
Ri574	VDD#146	VDD#151	5.416661	$mt1	$W=1.2e-07
Ri575	VDD#142	VDD#143	15.000000	$mt1	$W=1.2e-07
Ri576	VDD#142	VDD#145	15.000000	$mt1	$W=1.2e-07
Ri577	VDD#147	VDD#148	5.000000	$mt1	$W=1.2e-07
Ri578	VDD#153	VDD#154	0.140000	$mt1	$W=1.2e-07
Ri579	VDD#154	VDD#155	0.093333	$mt1	$W=1.8e-07
Ri580	VDD#154	VDD#156	0.315576	$mt1	$W=1.2e-07
Ri581	VDD#154	VDD#158	0.595576	$mt1	$W=1.2e-07
Ri583	VDD#156	VDD#160	0.293333	$mt1	$W=1.2e-07
Ri584	VDD#160	VDD#161	0.448910	$mt1	$W=1.2e-07
Ri585	VDD#161	VDD#163	0.595576	$mt1	$W=1.2e-07
Ri587	VDD#160	VDD#165	7.766495	$mt1	$W=1.2e-07
Ri589	VDD#161	VDD#169	1.004698	$mt1	$W=1.2e-07
Ri591	VDD#152	VDD#153	15.000000	$mt1	$W=1.2e-07
Ri592	VDD#152	VDD#155	15.000000	$mt1	$W=1.2e-07
Ri593	VDD#157	VDD#158	5.000000	$mt1	$W=1.2e-07
Ri594	VDD#162	VDD#163	5.000000	$mt1	$W=1.2e-07
Ri596	VDD#168	VDD#169	5.000000	$mt1	$W=1.2e-07
Ri597	net16#3	net16#54	10.426666	$mt1	$W=1.2e-07
Ri598	net16#54	net16#55	0.413333	$mt1	$W=1.2e-07
Ri599	net16#55	net16#56	1.119744	$mt1	$W=1.2e-07
Ri600	net16#56	net16#57	1.733077	$mt1	$W=1.2e-07
Ri601	net16#57	net16#58	0.239828	$mt1	$W=1.2e-07
Ri602	VDD#172	VDD#173	0.140000	$mt1	$W=1.2e-07
Ri603	VDD#173	VDD#174	0.093333	$mt1	$W=1.8e-07
Ri604	VDD#173	VDD#175	0.315576	$mt1	$W=1.2e-07
Ri605	VDD#173	VDD#177	0.595576	$mt1	$W=1.2e-07
Ri607	VDD#175	VDD#179	0.293333	$mt1	$W=1.2e-07
Ri608	VDD#179	VDD#180	0.448910	$mt1	$W=1.2e-07
Ri609	VDD#180	VDD#182	0.595576	$mt1	$W=1.2e-07
Ri611	VDD#179	VDD#184	7.439828	$mt1	$W=1.2e-07
Ri613	VDD#180	VDD#188	1.004698	$mt1	$W=1.2e-07
Ri615	VDD#171	VDD#172	15.000000	$mt1	$W=1.2e-07
Ri616	VDD#171	VDD#174	15.000000	$mt1	$W=1.2e-07
Ri617	VDD#176	VDD#177	5.000000	$mt1	$W=1.2e-07
Ri618	VDD#181	VDD#182	5.000000	$mt1	$W=1.2e-07
Ri620	VDD#187	VDD#188	5.000000	$mt1	$W=1.2e-07
Ri621	net15#26	net15	10.386666	$mt1	$W=1.2e-07
Ri622	net15#26	net15#28	1.002414	$mt1	$W=1.2e-07
Ri623	I21/net1#3	I21/net1#6	10.406667	$mt1	$W=1.2e-07
Ri624	I21/net1#6	I21/net1#7	0.486667	$mt1	$W=1.2e-07
Ri625	I21/net1#7	I21/net1#8	0.607273	$mt1	$W=1.2e-07
Ri626	I21/net1#8	I21/net1#10	1.119668	$mt1	$W=1.2e-07
Ri628	I21/net1#8	I21/net1#13	0.756938	$mt1	$W=1.2e-07
Ri630	I21/net1#9	I21/net1#10	5.000000	$mt1	$W=1.2e-07
Ri631	I21/net1#12	I21/net1#13	5.000000	$mt1	$W=1.2e-07
Ri633	net14#6	net14#8	0.596938	$mt1	$W=1.2e-07
Ri634	net14#8	net14#10	0.516938	$mt1	$W=1.2e-07
Ri636	net14#8	net14#12	0.293939	$mt1	$W=1.2e-07
Ri637	net14#12	net14#13	0.340000	$mt1	$W=1.2e-07
Ri638	net14#13	net14#14	6.860445	$mt1	$W=1.2e-07
Ri639	net14#5	net14#6	5.000000	$mt1	$W=1.2e-07
Ri640	net14#9	net14#10	7.500000	$mt1	$W=1.2e-07
Ri641	net15#29	net15#30	0.070352	$mt1	$W=1.5e-07
Ri642	net15#30	net15#31	7.833861	$mt1	$W=1.2e-07
Ri643	net15#31	net15#32	0.340000	$mt1	$W=1.2e-07
Ri644	net15#32	net15#33	0.293939	$mt1	$W=1.2e-07
Ri645	net15#33	net15#35	0.516938	$mt1	$W=1.2e-07
Ri647	net15#30	net15#37	8.209769	$mt1	$W=1.2e-07
Ri648	net15#37	net15#38	1.496765	$mt1	$W=1.2e-07
Ri649	net15#33	net15#40	0.596938	$mt1	$W=1.2e-07
Ri651	net15#37	net15#42	0.830271	$mt1	$W=1.2e-07
Ri652	net15#42	net15#43	0.849080	$mt1	$W=1.2e-07
Ri653	net15#34	net15#35	7.500000	$mt1	$W=1.2e-07
Ri654	net15#39	net15#40	5.000000	$mt1	$W=1.2e-07
Ri655	net20#39	net20	10.386666	$mt1	$W=1.2e-07
Ri656	net20#39	net20#41	1.002414	$mt1	$W=1.2e-07
Ri657	VDD#191	VDD#192	0.140000	$mt1	$W=1.2e-07
Ri658	VDD#192	VDD#193	0.093333	$mt1	$W=1.8e-07
Ri659	VDD#192	VDD#194	0.315576	$mt1	$W=1.2e-07
Ri660	VDD#192	VDD#196	0.595576	$mt1	$W=1.2e-07
Ri662	VDD#194	VDD#198	0.293333	$mt1	$W=1.2e-07
Ri663	VDD#198	VDD#199	0.448910	$mt1	$W=1.2e-07
Ri664	VDD#199	VDD#201	0.595576	$mt1	$W=1.2e-07
Ri667	VDD#199	VDD#206	1.004698	$mt1	$W=1.2e-07
Ri669	VDD#198	VDD#208	1.103467	$mt1	$W=1.2e-07
Ri670	VDD#208	VDD#209	2.578882	$mt1	$W=1.2e-07
Ri671	VDD#209	VDD#210	2.143328	$mt1	$W=1.2e-07
Ri672	VDD#210	VDD#211	0.297715	$mt1	$W=1.2e-07
[...]
C8038	I26/net1#7	GND	cmodel	4.0522e-19
C8039	Yk1#21	GND	cmodel	2.29353e-18
C8040	VDD#32	GND	cmodel	2.28536e-19
C8041	I16/net1#6	GND	cmodel	1.85243e-19
C8042	I26/net1#6	GND	cmodel	1.85243e-19
C8043	VDD#40	GND	cmodel	2.68786e-18
C8044	I8/net2#6	GND	cmodel	2.133e-18
C8045	I8/net1#6	GND	cmodel	3.31114e-18
C8046	Xk3#17	GND	cmodel	3.66047e-19
C8047	Yk3#21	GND	cmodel	1.31149e-18
C8048	VDD#107	GND	cmodel	1.7428e-18
C8049	VDD#54	GND	cmodel	2.68786e-18
C8050	Xk3#18	GND	cmodel	4.28353e-19
C8051	VDD#68	GND	cmodel	2.68786e-18
C8052	VDD#130	GND	cmodel	1.3706e-18
C8053	VDD#108	GND	cmodel	3.74374e-18
C8054	I27/net1#5	GND	cmodel	1.19387e-18
C8055	I28/net1#5	GND	cmodel	1.19387e-18
C8056	I7/net1#7	GND	cmodel	4.0522e-19
C8057	Yk3#14	GND	cmodel	2.29353e-18
C8058	I17/net1#5	GND	cmodel	1.19387e-18
C8059	I7/net1#6	GND	cmodel	1.85243e-19
C8060	VDD#121	GND	cmodel	2.68786e-18
C8061	I8/net1#5	GND	cmodel	1.19387e-18
C8062	net16#55	GND	cmodel	3.5042e-19
C8063	net15#22	GND	cmodel	3.67204e-18
C8064	VDD#198	GND	cmodel	4.39333e-18
C8065	net16#54	GND	cmodel	4.02061e-19
C8066	VDD#199	GND	cmodel	3.74374e-18
C8067	net16#80	GND	cmodel	3.69941e-19
C8068	net20#55	GND	cmodel	5.9313e-18
C8069	VDD#448	GND	cmodel	1.7428e-18
C8070	I21/net1#7	GND	cmodel	3.80951e-19
C8071	net15#26	GND	cmodel	2.29353e-18
C8072	net16#79	GND	cmodel	4.24459e-19
C8073	VDD#461	GND	cmodel	3.74374e-18
C8074	I21/net1#6	GND	cmodel	1.74149e-19
C8075	Ck#50	GND	cmodel	3.66047e-19
C8076	net15#42	GND	cmodel	3.6672e-18
C8077	I22/net1#7	GND	cmodel	4.0522e-19
C8078	net20#39	GND	cmodel	2.29353e-18
C8079	Ck#51	GND	cmodel	4.28353e-19
C8080	I22/net1#6	GND	cmodel	1.85243e-19
C8081	VDD#315	GND	cmodel	3.74374e-18
C8082	I30/net1#7	GND	cmodel	4.0522e-19
C8083	net15#44	GND	cmodel	2.29353e-18
C8084	I30/net1#6	GND	cmodel	1.85243e-19
C8085	net15#49	GND	cmodel	1.03723e-17
C8086	VDD#240	GND	cmodel	1.18566e-17
C8087	net20#44	GND	cmodel	5.5008e-19
C8088	VDD#222	GND	cmodel	8.89433e-18
C8089	net17#53	GND	cmodel	3.5042e-19
C8090	net25#14	GND	cmodel	1.28064e-17
C8091	VDD#392	GND	cmodel	5.72368e-18
C8092	net15#48	GND	cmodel	4.71866e-18
C8093	net20#43	GND	cmodel	4.71866e-18
C8094	VDD#241	GND	cmodel	1.65775e-19
C8095	net17#52	GND	cmodel	4.02061e-19
C8096	VDD#223	GND	cmodel	1.65775e-19
C8097	net18#68	GND	cmodel	3.66047e-19
C8098	net30#10	GND	cmodel	5.95691e-18
C8099	VDD#406	GND	cmodel	5.47288e-18
C8100	net25#18	GND	cmodel	5.5008e-19
C8101	VDD#269	GND	cmodel	5.81154e-18
C8102	VDD#344	GND	cmodel	4.55871e-18
C8103	VDD#262	GND	cmodel	4.55871e-18
C8104	net18#69	GND	cmodel	4.28353e-19
C8105	net16#71	GND	cmodel	3.19724e-18
C8106	net20#47	GND	cmodel	1.38107e-18
C8107	net16#75	GND	cmodel	3.19724e-18
C8108	net15#54	GND	cmodel	1.38107e-18
C8109	VDD#665	GND	cmodel	3.74374e-18
C8110	net25#17	GND	cmodel	4.71866e-18
C8111	I11/net1#7	GND	cmodel	4.93616e-19
C8112	VDD#352	GND	cmodel	3.35797e-18
C8113	VDD#263	GND	cmodel	3.35797e-18
C8114	I12/net1#7	GND	cmodel	4.93616e-19
C8115	VDD#282	GND	cmodel	1.65775e-19
C8116	I10/net1#7	GND	cmodel	4.0522e-19
C8117	net25#20	GND	cmodel	2.29353e-18
C8118	I10/net1#6	GND	cmodel	1.85243e-19
C8119	VDD#238	GND	cmodel	4.22914e-18
C8120	I4/net1#7	GND	cmodel	4.0522e-19
C8121	net30#12	GND	cmodel	2.29353e-18
C8122	I4/net1#6	GND	cmodel	1.85243e-19
C8123	I3/net1#7	GND	cmodel	4.93616e-19
C8124	net18#46	GND	cmodel	2.00563e-18
C8125	I2/net1#7	GND	cmodel	4.6522e-19
C8126	net18#49	GND	cmodel	2.00563e-18
C8127	I1/net1#7	GND	cmodel	4.6522e-19
C8128	VDD#300	GND	cmodel	1.17221e-18
C8129	VDD#551	GND	cmodel	1.17221e-18
C8130	net30#29	GND	cmodel	5.45413e-19
C8131	VDD#379	GND	cmodel	1.49971e-18
C8132	net4#7	GND	cmodel	3.69941e-19
C8133	Ck#26	GND	cmodel	4.19649e-18
C8134	VDD#333	GND	cmodel	1.7428e-18
C8135	net4#6	GND	cmodel	4.24459e-19
C8136	VDD#334	GND	cmodel	3.74374e-18
C8137	I6/net1#7	GND	cmodel	4.0522e-19
C8138	Ck#28	GND	cmodel	2.29353e-18
C8139	I6/net1#6	GND	cmodel	1.85243e-19
C8140	net1#7	GND	cmodel	6.79929e-19
C8141	net14#19	GND	cmodel	3.93573e-19
C8142	VDD#638	GND	cmodel	1.12413e-18
C8143	net14#18	GND	cmodel	1.4877e-18
C8144	net19#17	GND	cmodel	3.69941e-19
C8145	Ck#32	GND	cmodel	2.28487e-18
C8146	VDD#372	GND	cmodel	1.7428e-18
C8147	net19#16	GND	cmodel	4.24459e-19
C8148	VDD#373	GND	cmodel	3.74374e-18
C8149	I14/net1#7	GND	cmodel	4.0522e-19
C8150	Ck#34	GND	cmodel	2.29353e-18
C8151	I14/net1#6	GND	cmodel	1.85243e-19
C8152	net92#7	GND	cmodel	3.69941e-19
C8153	VDD#442	GND	cmodel	1.7428e-18
C8154	net92#6	GND	cmodel	4.24459e-19
C8155	VDD#443	GND	cmodel	3.74374e-18
C8156	Ck#45	GND	cmodel	1.04981e-18
C8157	net20#59	GND	cmodel	1.75243e-18
C8158	net16#85	GND	cmodel	1.04981e-18
C8159	net90#11	GND	cmodel	1.75243e-18
C8160	VDD#420	GND	cmodel	2.28536e-19
C8161	VDD#429	GND	cmodel	3.17789e-18
C8162	I20/net1#7	GND	cmodel	4.0522e-19
C8163	Ck#40	GND	cmodel	2.29353e-18
C8164	VDD#630	GND	cmodel	1.17221e-18
C8165	I20/net1#6	GND	cmodel	1.85243e-19
C8166	I32/net2#6	GND	cmodel	2.133e-18
C8167	I32/net1#6	GND	cmodel	3.31114e-18
C8168	I31/net2#6	GND	cmodel	2.133e-18
C8169	I31/net1#6	GND	cmodel	3.31114e-18
C8170	VDD#482	GND	cmodel	1.3706e-18
C8171	VDD#496	GND	cmodel	4.44432e-18
C8172	VDD#473	GND	cmodel	2.68786e-18
C8173	VDD#487	GND	cmodel	2.68786e-18
C8174	net66#7	GND	cmodel	1.02579e-18
C8175	VDD#526	GND	cmodel	1.17221e-18
C8176	I32/net1#5	GND	cmodel	1.19387e-18
C8177	I31/net1#5	GND	cmodel	1.19387e-18
C8178	VDD#542	GND	cmodel	1.17221e-18
C8179	net32#11	GND	cmodel	1.04981e-18
C8180	net18#54	GND	cmodel	1.75243e-18
C8181	VDD#569	GND	cmodel	2.28536e-19
C8182	net73#11	GND	cmodel	1.04981e-18
C8183	net17#86	GND	cmodel	1.75243e-18
C8184	I9/net2#6	GND	cmodel	2.133e-18
C8185	I9/net1#6	GND	cmodel	3.31114e-18
C8186	VDD#578	GND	cmodel	2.28536e-19
C8187	VDD#595	GND	cmodel	1.3706e-18
C8188	I18/net2#6	GND	cmodel	2.133e-18
C8189	I18/net1#6	GND	cmodel	3.31114e-18
C8190	VDD#618	GND	cmodel	1.3706e-18
C8191	VDD#586	GND	cmodel	2.68786e-18
C8192	VDD#609	GND	cmodel	2.68786e-18
C8193	I9/net1#5	GND	cmodel	1.19387e-18
C8194	I18/net1#5	GND	cmodel	1.19387e-18
C8195	VDD#7	GND	cmodel	2.50273e-18
C8196	VDD#16	GND	cmodel	2.67723e-18
C8197	net16#34	GND	cmodel	1.73219e-18
C8198	VDD#25	GND	cmodel	2.67723e-18
C8199	net20#22	GND	cmodel	1.73219e-18
C8200	net16#38	GND	cmodel	2.44757e-18
C8201	net17#34	GND	cmodel	1.73219e-18
C8202	net20#26	GND	cmodel	2.44757e-18
C8203	I29/net1#8	GND	cmodel	4.84114e-20
C8204	I29/net1#13	GND	cmodel	4.97451e-19
C8205	net17#38	GND	cmodel	2.44757e-18
C8206	I16/net1#8	GND	cmodel	4.84114e-20
C8207	I16/net1#13	GND	cmodel	4.97451e-19
C8208	net16#42	GND	cmodel	7.06206e-18
C8209	net16#46	GND	cmodel	6.92111e-18
C8210	I26/net1#8	GND	cmodel	4.84114e-20
C8211	I26/net1#13	GND	cmodel	4.97451e-19
C8212	net20#30	GND	cmodel	4.30048e-18
C8213	net20#34	GND	cmodel	4.15953e-18
C8214	I27/I0/net7#5	GND	cmodel	9.24268e-19
C8215	net17#42	GND	cmodel	7.06206e-18
C8216	net17#46	GND	cmodel	6.92111e-18
C8217	I28/I0/net7#5	GND	cmodel	9.24268e-19
C8218	VDD#34	GND	cmodel	2.67723e-18
C8219	I17/I0/net7#5	GND	cmodel	9.24268e-19
C8220	VDD#38	GND	cmodel	7.29731e-18
C8221	VDD#44	GND	cmodel	5.54842e-18
C8222	I27/net2#7	GND	cmodel	1.65999e-18
C8223	I27/net2#9	GND	cmodel	1.56399e-18
C8224	I27/net2#13	GND	cmodel	6.04115e-19
C8225	net18#26	GND	cmodel	1.73219e-18
C8226	I27/net1#9	GND	cmodel	5.94419e-19
C8227	I27/net1#13	GND	cmodel	2.06969e-18
C8228	VDD#52	GND	cmodel	7.29731e-18
C8229	VDD#58	GND	cmodel	2.70546e-18
C8230	I28/net2#7	GND	cmodel	1.65999e-18
C8231	I28/net2#9	GND	cmodel	1.56399e-18
C8232	I28/net2#13	GND	cmodel	6.04115e-19
C8233	I28/net1#9	GND	cmodel	5.94419e-19
C8234	I28/net1#13	GND	cmodel	2.06969e-18
C8235	VDD#66	GND	cmodel	7.29731e-18
C8236	VDD#72	GND	cmodel	2.70546e-18
C8237	net18#30	GND	cmodel	2.44757e-18
C8238	I17/net2#7	GND	cmodel	1.65999e-18
C8239	I17/net2#9	GND	cmodel	1.56399e-18
C8240	I17/net2#13	GND	cmodel	6.04115e-19
C8241	I17/net1#9	GND	cmodel	5.94419e-19
C8242	I17/net1#13	GND	cmodel	2.06969e-18
C8243	VDD#90	GND	cmodel	5.28983e-18
C8244	VDD#97	GND	cmodel	2.70546e-18
C8245	I7/net1#8	GND	cmodel	4.84114e-20
C8246	I7/net1#13	GND	cmodel	4.97451e-19
C8247	net18#34	GND	cmodel	7.06206e-18
C8248	net18#38	GND	cmodel	4.15953e-18
C8249	I8/I0/net7#5	GND	cmodel	9.24268e-19
C8250	VDD#110	GND	cmodel	2.70546e-18
C8251	VDD#116	GND	cmodel	2.70546e-18
C8252	VDD#119	GND	cmodel	7.29731e-18
C8253	VDD#125	GND	cmodel	2.70546e-18
C8254	I8/net2#7	GND	cmodel	1.65999e-18
C8255	I8/net2#9	GND	cmodel	1.56399e-18
C8256	I8/net2#13	GND	cmodel	6.04115e-19
C8257	I8/net1#9	GND	cmodel	5.94419e-19
C8258	I8/net1#13	GND	cmodel	2.06969e-18
C8259	VDD#163	GND	cmodel	2.70546e-18
C8260	VDD#169	GND	cmodel	2.70546e-18
C8261	VDD#182	GND	cmodel	2.70546e-18
C8262	VDD#188	GND	cmodel	2.70546e-18
C8263	I21/net1#8	GND	cmodel	4.84114e-20
C8264	I21/net1#13	GND	cmodel	4.97451e-19
C8265	net14#6	GND	cmodel	3.31962e-18
C8266	net15#35	GND	cmodel	6.12093e-19
C8267	net15#40	GND	cmodel	2.75453e-18
C8268	VDD#201	GND	cmodel	2.70546e-18
C8269	VDD#206	GND	cmodel	2.70546e-18
C8270	I22/net1#8	GND	cmodel	4.84114e-20
C8271	I22/net1#13	GND	cmodel	4.97451e-19
C8272	I30/net1#8	GND	cmodel	4.84114e-20
C8273	I30/net1#13	GND	cmodel	4.97451e-19
C8274	net15#50	GND	cmodel	5.1393e-18
C8275	I11/net1#8	GND	cmodel	1.18977e-18
C8276	I11/net1#9	GND	cmodel	1.59144e-20
C8277	I11/net1#14	GND	cmodel	4.29892e-19
C8278	I11/net1#17	GND	cmodel	2.70898e-19
C8279	I12/net1#8	GND	cmodel	1.18977e-18
C8280	I12/net1#9	GND	cmodel	1.59144e-20
C8281	I12/net1#14	GND	cmodel	4.29892e-19
C8282	I12/net1#17	GND	cmodel	2.70898e-19
C8283	I10/net1#8	GND	cmodel	4.84114e-20
C8284	I10/net1#13	GND	cmodel	4.97451e-19
C8285	I4/net1#8	GND	cmodel	4.84114e-20
C8286	I4/net1#13	GND	cmodel	4.97451e-19
C8287	VDD#231	GND	cmodel	3.18311e-18
C8288	VDD#234	GND	cmodel	4.53649e-18
C8289	I3/net1#8	GND	cmodel	1.18977e-18
C8290	I3/net1#9	GND	cmodel	1.59144e-20
C8291	I3/net1#14	GND	cmodel	4.29892e-19
C8292	I3/net1#17	GND	cmodel	2.70898e-19
C8293	I2/net1#8	GND	cmodel	1.26549e-18
C8294	I2/net1#9	GND	cmodel	1.23899e-18
C8295	I2/net1#14	GND	cmodel	3.3436e-19
C8296	I2/net1#17	GND	cmodel	7.38557e-19
C8297	I1/net1#8	GND	cmodel	1.26549e-18
C8298	I1/net1#9	GND	cmodel	1.23899e-18
C8299	I1/net1#14	GND	cmodel	3.3436e-19
C8300	I1/net1#17	GND	cmodel	7.38557e-19
C8301	net2#6	GND	cmodel	6.12093e-19
C8302	net2#10	GND	cmodel	5.03154e-18
C8303	VDD#249	GND	cmodel	4.77658e-19
C8304	net89#12	GND	cmodel	6.12093e-19
C8305	net89#15	GND	cmodel	4.12453e-19
C8306	net30#16	GND	cmodel	3.31962e-18
C8307	VDD#267	GND	cmodel	3.00418e-19
C8308	VDD#277	GND	cmodel	1.02761e-18
C8309	VDD#280	GND	cmodel	8.23423e-19
C8310	VDD#284	GND	cmodel	2.36858e-18
C8311	VDD#290	GND	cmodel	1.83103e-18
C8312	net25#24	GND	cmodel	3.31962e-18
C8313	net91#12	GND	cmodel	6.12093e-19
C8314	net91#15	GND	cmodel	4.12453e-19
C8315	net54#6	GND	cmodel	6.12093e-19
C8316	net54#10	GND	cmodel	5.03154e-18
C8317	I24/net1#8	GND	cmodel	2.60731e-20
C8318	net4#10	GND	cmodel	1.15664e-18
C8319	net4#12	GND	cmodel	2.26695e-18
C8320	net53#12	GND	cmodel	6.12093e-19
C8321	net53#15	GND	cmodel	2.75453e-18
C8322	VDD#302	GND	cmodel	2.15749e-18
C8323	I23/net1#8	GND	cmodel	2.60731e-20
C8324	I6/net1#8	GND	cmodel	4.84114e-20
C8325	I6/net1#13	GND	cmodel	4.97451e-19
C8326	I13/net1#9	GND	cmodel	1.84173e-18
C8327	I13/net1#11	GND	cmodel	7.5143e-19
C8328	I13/net1#14	GND	cmodel	2.75157e-20
C8329	I13/net1#17	GND	cmodel	4.87378e-19
C8330	VDD#336	GND	cmodel	2.28487e-18
C8331	VDD#356	GND	cmodel	3.00418e-19
C8332	VDD#359	GND	cmodel	1.02761e-18
C8333	VDD#362	GND	cmodel	8.23423e-19
C8334	net3#6	GND	cmodel	6.12093e-19
C8335	net3#8	GND	cmodel	1.15664e-18
C8336	net3#10	GND	cmodel	1.65485e-18
C8337	net1#12	GND	cmodel	6.12093e-19
C8338	net1#15	GND	cmodel	4.12453e-19
C8339	net19#6	GND	cmodel	6.12093e-19
C8340	net19#10	GND	cmodel	5.03154e-18
C8341	I0/net1#8	GND	cmodel	1.10678e-18
C8342	I0/net1#9	GND	cmodel	1.74053e-18
C8343	I0/net1#11	GND	cmodel	2.76436e-19
C8344	I0/net1#17	GND	cmodel	6.89285e-19
C8345	I14/net1#8	GND	cmodel	4.84114e-20
C8346	I14/net1#13	GND	cmodel	4.97451e-19
C8347	net92#12	GND	cmodel	6.12093e-19
C8348	net92#15	GND	cmodel	2.75453e-18
C8349	VDD#375	GND	cmodel	2.28487e-18
C8350	VDD#401	GND	cmodel	6.69138e-19
C8351	VDD#408	GND	cmodel	2.28487e-18
C8352	net5#6	GND	cmodel	1.02455e-18
C8353	I20/net1#8	GND	cmodel	4.84114e-20
C8354	I20/net1#13	GND	cmodel	4.97451e-19
C8355	net6#12	GND	cmodel	1.8913e-18
C8356	VDD#422	GND	cmodel	2.67723e-18
C8357	VDD#431	GND	cmodel	2.67723e-18
C8358	VDD#463	GND	cmodel	2.2641e-18
C8359	SUMk#2	GND	cmodel	1.73219e-18
C8360	SUMk1#2	GND	cmodel	1.73219e-18
C8361	net90#14	GND	cmodel	2.51727e-18
C8362	net90#16	GND	cmodel	5.27613e-18
C8363	I5/net1#8	GND	cmodel	2.60731e-20
C8364	SUMk#10	GND	cmodel	8.56906e-19
C8365	SUMk#14	GND	cmodel	2.05662e-18
C8366	SUMk1#10	GND	cmodel	8.56906e-19
C8367	SUMk1#14	GND	cmodel	2.05662e-18
C8368	I32/I0/net7#5	GND	cmodel	9.24268e-19
C8369	I31/I0/net7#5	GND	cmodel	9.24268e-19
C8370	net75#6	GND	cmodel	1.02455e-18
C8371	VDD#471	GND	cmodel	4.59185e-18
C8372	VDD#485	GND	cmodel	4.59185e-18
C8373	net63#6	GND	cmodel	6.12093e-19
C8374	net63#10	GND	cmodel	5.73622e-18
C8375	I32/net2#7	GND	cmodel	1.65999e-18
C8376	I32/net2#9	GND	cmodel	1.56399e-18
C8377	I32/net2#13	GND	cmodel	6.04115e-19
C8378	I31/net2#7	GND	cmodel	1.65999e-18
C8379	I31/net2#9	GND	cmodel	1.56399e-18
C8380	I31/net2#13	GND	cmodel	6.04115e-19
C8381	I32/net1#9	GND	cmodel	5.94419e-19
C8382	I32/net1#13	GND	cmodel	2.06969e-18
C8383	I31/net1#9	GND	cmodel	5.94419e-19
C8384	I31/net1#13	GND	cmodel	2.06969e-18
C8385	net66#12	GND	cmodel	6.12093e-19
C8386	net66#15	GND	cmodel	4.12453e-19
C8387	net74#6	GND	cmodel	5.79878e-19
C8388	net74#8	GND	cmodel	2.51727e-18
C8389	net74#10	GND	cmodel	4.67498e-18
C8390	I15/net1#8	GND	cmodel	2.60731e-20
C8391	VDD#528	GND	cmodel	2.15749e-18
C8392	I19/net1#8	GND	cmodel	2.60731e-20
C8393	VDD#544	GND	cmodel	2.15749e-18
C8394	VDD#560	GND	cmodel	2.15749e-18
C8395	VDD#571	GND	cmodel	2.67723e-18
C8396	net18#55	GND	cmodel	4.1174e-18
C8397	VDD#580	GND	cmodel	2.67723e-18
C8398	net32#14	GND	cmodel	2.51727e-18
C8399	net32#16	GND	cmodel	5.27613e-18
C8400	SUMk3#10	GND	cmodel	8.56906e-19
C8401	SUMk3#14	GND	cmodel	8.41127e-19
C8402	net73#14	GND	cmodel	2.51727e-18
C8403	net73#16	GND	cmodel	5.27613e-18
C8404	I9/I0/net7#5	GND	cmodel	9.24268e-19
C8405	SUMk2#10	GND	cmodel	8.56906e-19
C8406	SUMk2#14	GND	cmodel	8.41127e-19
C8407	VDD#584	GND	cmodel	4.59185e-18
C8408	I9/net2#7	GND	cmodel	1.65999e-18
C8409	I9/net2#9	GND	cmodel	1.56399e-18
C8410	I9/net2#13	GND	cmodel	6.04115e-19
C8411	I18/I0/net7#5	GND	cmodel	9.24268e-19
C8412	I9/net1#9	GND	cmodel	5.94419e-19
C8413	I9/net1#13	GND	cmodel	2.06969e-18
C8414	VDD#607	GND	cmodel	4.59185e-18
C8415	I18/net2#7	GND	cmodel	1.65999e-18
C8416	I18/net2#9	GND	cmodel	1.56399e-18
C8417	I18/net2#13	GND	cmodel	6.04115e-19
C8418	I18/net1#9	GND	cmodel	5.94419e-19
C8419	I18/net1#13	GND	cmodel	2.06969e-18
C8420	VDD#640	GND	cmodel	4.12736e-18
C8421	VDD#643	GND	cmodel	2.42927e-18
C8422	VDD#646	GND	cmodel	2.15749e-18
C8423	VDD#667	GND	cmodel	2.28487e-18
C8424	CK4#3	GND	cmodel	2.51727e-18
C8425	CK4#5	GND	cmodel	5.27613e-18
C8426	net16#89	GND	cmodel	7.84419e-18
C8427	net20#63	GND	cmodel	4.63494e-18
C8428	net17#92	GND	cmodel	4.63494e-18
C8429	net18#72	GND	cmodel	4.63494e-18
C8430	SUMk#22	GND	cmodel	1.87837e-18
C8431	SUMk1#22	GND	cmodel	1.87837e-18
C8432	VDD#729	GND	cmodel	4.05192e-18
C8433	SUMk3#22	GND	cmodel	1.87837e-18
C8434	SUMk2#22	GND	cmodel	1.87837e-18
C8435	Xk1#2	GND	cmodel	3.88788e-18
C8436	Yk1#2	GND	cmodel	2.73903e-18
C8437	Xk#2	GND	cmodel	3.88788e-18
C8438	Yk#2	GND	cmodel	2.73903e-18
C8439	Xk2#2	GND	cmodel	3.88788e-18
C8440	Yk2#2	GND	cmodel	2.73903e-18
C8441	Xk#6	GND	cmodel	2.39921e-18
C8442	Xk2#6	GND	cmodel	2.44155e-18
C8443	Yk#6	GND	cmodel	1.36938e-18
C8444	Yk2#6	GND	cmodel	1.36922e-18
C8445	Xk1#6	GND	cmodel	4.90398e-18
C8446	Yk1#6	GND	cmodel	1.36938e-18
C8447	Xk1#10	GND	cmodel	2.21996e-18
C8448	Yk1#10	GND	cmodel	1.22807e-18
C8449	Xk#10	GND	cmodel	2.21996e-18
C8450	I29/net1#2	GND	cmodel	6.12093e-19
C8451	Xk3#2	GND	cmodel	3.88788e-18
C8452	Yk3#2	GND	cmodel	2.73903e-18
C8453	Yk#10	GND	cmodel	1.22807e-18
C8454	I16/net1#2	GND	cmodel	6.12093e-19
C8455	Xk2#10	GND	cmodel	2.21996e-18
C8456	Yk2#10	GND	cmodel	1.22807e-18
C8457	I27/net2#2	GND	cmodel	6.49864e-19
C8458	I26/net1#2	GND	cmodel	6.12093e-19
C8459	I28/net2#2	GND	cmodel	6.49864e-19
C8460	I27/net1#2	GND	cmodel	1.05839e-18
C8461	I17/net2#2	GND	cmodel	6.49864e-19
C8462	I28/net1#2	GND	cmodel	1.05839e-18
C8463	Xk3#6	GND	cmodel	4.95083e-18
C8464	I17/net1#2	GND	cmodel	1.05839e-18
C8465	Yk3#6	GND	cmodel	1.36938e-18
C8466	Xk3#10	GND	cmodel	2.21996e-18
C8467	Yk3#10	GND	cmodel	1.22807e-18
C8468	I7/net1#2	GND	cmodel	6.12093e-19
C8469	I8/net2#2	GND	cmodel	6.49864e-19
C8470	I8/net1#2	GND	cmodel	1.05839e-18
C8471	net16#2	GND	cmodel	4.90344e-18
C8472	net15#2	GND	cmodel	3.95268e-18
C8473	net16#6	GND	cmodel	8.46861e-18
C8474	I21/net1#2	GND	cmodel	6.12093e-19
C8475	net20#2	GND	cmodel	3.95268e-18
C8476	Ck#2	GND	cmodel	8.46915e-18
C8477	I22/net1#2	GND	cmodel	6.12093e-19
C8478	net15#6	GND	cmodel	7.56079e-18
C8479	I30/net1#2	GND	cmodel	6.12093e-19
C8480	net15#10	GND	cmodel	3.28475e-18
C8481	net20#6	GND	cmodel	3.28475e-18
C8482	net16#10	GND	cmodel	2.5484e-18
C8483	net16#14	GND	cmodel	2.5484e-18
C8484	net17#2	GND	cmodel	8.46861e-18
C8485	net17#6	GND	cmodel	4.13338e-18
C8486	net17#10	GND	cmodel	5.96442e-18
C8487	net25#2	GND	cmodel	3.95268e-18
C8488	net18#2	GND	cmodel	4.90398e-18
C8489	net20#10	GND	cmodel	2.42661e-18
C8490	net15#14	GND	cmodel	2.42661e-18
C8491	net30#2	GND	cmodel	3.95284e-18
C8492	net25#6	GND	cmodel	3.28475e-18
C8493	net16#18	GND	cmodel	4.69701e-18
C8494	net16#22	GND	cmodel	1.83341e-18
C8495	net17#14	GND	cmodel	2.5484e-18
C8496	I11/net1#2	GND	cmodel	6.12093e-19
C8497	net17#18	GND	cmodel	3.12657e-18
C8498	net17#22	GND	cmodel	3.12657e-18
C8499	net18#6	GND	cmodel	5.96442e-18
C8500	I12/net1#2	GND	cmodel	6.12093e-19
C8501	I10/net1#2	GND	cmodel	6.12093e-19
C8502	net18#10	GND	cmodel	2.61839e-19
C8503	net18#14	GND	cmodel	2.61839e-19
C8504	I4/net1#2	GND	cmodel	6.12093e-19
C8505	I3/net1#2	GND	cmodel	6.12093e-19
C8506	I2/net1#2	GND	cmodel	6.12093e-19
C8507	I1/net1#2	GND	cmodel	6.12093e-19
C8508	net89#2	GND	cmodel	2.57546e-18
C8509	net15#18	GND	cmodel	1.89125e-18
C8510	net91#2	GND	cmodel	3.71705e-18
C8511	net25#10	GND	cmodel	4.66715e-18
C8512	I24/net1#2	GND	cmodel	6.01148e-19
C8513	net30#6	GND	cmodel	2.75157e-20
C8514	net4#2	GND	cmodel	4.97451e-19
C8515	net53#2	GND	cmodel	3.80856e-18
C8516	Ck#6	GND	cmodel	3.41401e-18
C8517	I23/net1#2	GND	cmodel	5.79878e-19
C8518	net54#2	GND	cmodel	2.50475e-18
C8519	I6/net1#2	GND	cmodel	6.12093e-19
C8520	I13/net1#2	GND	cmodel	6.12093e-19
C8521	net14#2	GND	cmodel	3.97936e-19
C8522	net1#2	GND	cmodel	7.4838e-19
C8523	net2#2	GND	cmodel	4.88008e-18
C8524	net3#2	GND	cmodel	5.91538e-19
C8525	net19#2	GND	cmodel	3.6388e-18
C8526	Ck#10	GND	cmodel	3.95268e-18
C8527	I0/net1#2	GND	cmodel	6.12093e-19
C8528	I14/net1#2	GND	cmodel	6.12093e-19
C8529	net92#2	GND	cmodel	3.6388e-18
C8530	Ck#14	GND	cmodel	1.36922e-18
C8531	net20#14	GND	cmodel	3.88788e-18
C8532	Ck#18	GND	cmodel	2.73903e-18
C8533	net90#2	GND	cmodel	3.88788e-18
C8534	net16#26	GND	cmodel	2.73903e-18
C8535	I20/net1#2	GND	cmodel	6.12093e-19
C8536	net6#2	GND	cmodel	3.71705e-18
C8537	net5#2	GND	cmodel	1.89125e-18
C8538	net20#18	GND	cmodel	5.19337e-18
C8539	net90#6	GND	cmodel	8.04057e-19
C8540	Ck#22	GND	cmodel	9.19176e-18
C8541	net16#30	GND	cmodel	1.22807e-18
C8542	I5/net1#2	GND	cmodel	6.01148e-19
C8543	I32/net2#2	GND	cmodel	6.49864e-19
C8544	I31/net2#2	GND	cmodel	6.49864e-19
C8545	I32/net1#2	GND	cmodel	1.05839e-18
C8546	I31/net1#2	GND	cmodel	1.05839e-18
C8547	net66#2	GND	cmodel	1.53387e-18
C8548	net63#2	GND	cmodel	1.89125e-18
C8549	net75#2	GND	cmodel	3.92284e-19
C8550	net74#2	GND	cmodel	1.89125e-18
C8551	I15/net1#2	GND	cmodel	6.01148e-19
C8552	I19/net1#2	GND	cmodel	6.01148e-19
C8553	net18#18	GND	cmodel	3.88788e-18
C8554	net32#2	GND	cmodel	2.73903e-18
C8555	net17#26	GND	cmodel	3.88788e-18
C8556	net73#2	GND	cmodel	2.73903e-18
C8557	net32#6	GND	cmodel	8.81288e-20
C8558	I9/net2#2	GND	cmodel	6.49864e-19
C8559	net73#6	GND	cmodel	8.81288e-20
C8560	I9/net1#2	GND	cmodel	3.74563e-19
C8561	I18/net2#2	GND	cmodel	6.49864e-19
C8562	I18/net1#2	GND	cmodel	3.74563e-19
*
*
.ENDS CLA_PBL
*
